Measurement: Raman, 514 nm, ccw, Raman Data Processed
Mineral: Titanite
Rruff sample: R050124
Ideal chemistry: CaTiSiO_5_
Locality: Capelinha, Minas Gerais, Brazil
Source: Carlos and Paulo Vasconcelos
Description: Yellow tabular crystal
Measured chemistry: Ca_1.00_(Ti_0.93_Al_0.05_Fe^3+^_0.02_)Si_1.00_O_4_(O)_1.00_
Pin_id: M00396
Orientation: Laser parallel to -a* (-1 0 0). Fiducial mark perpendicular to laser is parallel to -b [0 -1 0]
Raman shift (cm-1)	intensity
150.08	0
154.247	576.973
158.411	3415.87
162.574	5214.85
166.734	3526.86
170.893	1343.33
175.049	951.29
179.203	1798.1
183.355	2405.63
187.505	2029.64
191.653	1597.61
195.799	2282.24
199.943	2937.63
204.084	3480.49
208.224	3839.67
212.362	3617.25
216.497	3309.28
220.631	3473.04
224.762	4457.74
228.891	5451.12
233.018	6235.09
237.144	6101.3
241.267	6892.02
245.388	9379.07
249.507	12393.4
253.624	14165.4
257.739	14015.4
261.852	10843.6
265.962	6916.46
270.071	4850.01
274.178	4803.98
278.283	5291.52
282.385	6958.27
286.486	10350.5
290.584	13052.1
294.681	9582.73
298.775	5042.91
302.868	4118.96
306.958	5612.66
311.047	10147.8
315.133	17891.1
319.217	17817.8
323.299	11730.4
327.38	8761.01
331.458	8206.86
335.534	7616.18
339.608	6167.77
343.681	5380.81
347.751	5934.7
351.819	6218.86
355.885	4442.89
359.949	2729.48
364.011	1790.45
368.071	1373.65
372.129	893.97
376.185	308.066
380.239	268.791
384.291	545.584
388.341	579.939
392.389	681.969
396.435	746.88
400.479	473.696
404.521	136.191
408.561	1317.98
412.599	3736.21
416.636	8736.92
420.67	15767.1
424.702	16215.9
428.732	10462.8
432.76	5624.57
436.786	3004.58
440.81	1496.72
444.832	658.059
448.852	112.464
452.87	126.444
456.887	82.053
460.901	4.699
464.913	166.388
468.923	289.133
472.931	571.906
476.938	1099.69
480.942	1799.97
484.944	2618.54
488.945	3341.24
492.943	3588
496.94	3462.78
500.934	3339.53
504.927	3294.24
508.917	3333.91
512.906	3653.51
516.892	4066.07
520.877	4479.59
524.86	5009.07
528.841	5686.55
532.82	6457.03
536.796	7575.56
540.771	8358.14
544.744	7989.04
548.715	6910.79
552.684	5547.17
556.652	4431.14
560.617	4087.64
564.58	4876.17
568.541	6927.06
572.501	8830.68
576.458	10563.9
580.414	12746.9
584.367	15759.5
588.319	19651.8
592.268	25143.9
596.216	31726
600.162	38648
604.106	44609.6
608.048	47661.5
611.988	47810.5
615.926	43959.5
619.862	39192.6
623.797	33098
627.729	28897.1
631.659	24738.9
635.588	21547.9
639.515	18243.4
643.439	15969.8
647.362	14067.1
651.283	12885.1
655.202	11713.6
659.119	10222.7
663.034	9202.3
666.947	8472.36
670.859	7812.92
674.768	6973.99
678.676	6265.6
682.581	5597.76
686.485	5010.49
690.387	4743.81
694.287	4232.54
698.185	3868.65
702.081	3285.6
705.975	2940.07
709.868	2770.23
713.758	2397.23
717.647	1986.03
721.533	1757.86
725.418	1563.63
729.301	1378.11
733.182	1180.31
737.061	937.239
740.939	697.914
744.814	447.372
748.688	379.659
752.559	219.804
756.429	56.834
760.297	48.272
764.163	127.401
768.027	97.199
771.89	33.435
775.75	75.281
779.609	143.361
783.465	169.946
787.32	118.562
791.173	55.651
795.024	266.166
798.873	278.105
802.721	551.585
806.566	818.188
810.41	1398.43
814.252	2079.78
818.092	2425
821.93	2592.75
825.766	2732.01
829.601	2915.74
833.433	3277.94
837.264	3665.59
841.093	4425.66
844.92	5513.14
848.745	7117
852.568	9261.23
856.39	11175.8
860.209	12330.6
864.027	14355.7
867.843	18301
871.657	21006.4
875.47	19542
879.28	17387.6
883.089	15893.3
886.896	12969.6
890.701	9126.96
894.504	6165.62
898.305	4584.23
902.105	4216.57
905.902	4383.77
909.698	4501.05
913.492	4201.55
917.285	2713.81
921.075	1370.4
924.864	658.322
928.65	245.998
932.435	40.24
936.218	107.171
940	173.89
943.779	188.336
947.557	111.879
951.333	41.833
955.107	54.632
958.879	24.47
962.65	74.402
966.418	182.304
970.185	252.646
973.95	321.026
977.714	366.75
981.475	318.925
985.235	384.157
988.993	470.453
992.749	488.432
996.503	496.907
1000.26	576.016
1004.01	642.351
1007.75	675.36
1011.5	793.381
1015.25	757.773
1018.99	844.631
1022.73	880.947
1026.47	725.715
1030.21	432.928
1033.95	314.581
1037.68	250.656
1041.41	268.124
1045.15	212.962
1048.88	169.069
1052.6	131.376
1056.33	100.81
1060.05	99.338
1063.78	116.008
1067.5	184.875
1071.21	258.064
1074.93	284.665
1078.65	312.716
1082.36	405.923
1086.07	401.389
1089.78	353.151
1093.49	301.294
1097.2	229.822
1100.9	92.626
1104.6	86.164
1108.3	46.463
1112	30.06
1115.7	9.558
1119.4	37.96
1123.09	81.792
1126.78	89.094
1130.47	29.879
1134.16	63.142
1137.85	42.956
1141.54	126.27
1145.22	119.095
1148.9	102.925
1152.58	163.38
1156.26	249.875
1159.94	262.967
1163.61	377.664
1167.28	409.971
1170.95	647.895
1174.62	1058.44
1178.29	1361.62
1181.96	1329.2
1185.62	966.631
1189.29	685.253
1192.95	625.354
1196.61	654.984
1200.26	651.425
1203.92	602.68
1207.57	638.72
1211.23	664.508
1214.88	723.461
1218.53	560.618
1222.17	418.456
1225.82	474.697
1229.46	481.447
1233.11	541.034
1236.74	564.793
1240.38	585.153
1244.02	671.391
1247.66	673.566
1251.29	542.938
1254.92	451.556
1258.55	303.485
1262.18	252.118
1265.81	225.756
1269.43	228.646
1273.06	190.183
1276.68	214.063
1280.3	125.331
1283.91	120.303
1287.53	94.881
1291.15	211.732
1294.76	273.327
1298.37	317.152
1301.98	327.182
1305.59	342.844
1309.19	352.357
1312.8	328.731
1316.4	312.97
1320	300.101
1323.6	257.143
1327.2	212.1
1330.8	197.981
1334.39	145.796
1337.98	133.554
1341.58	101.316
1345.16	85.13
1348.75	48.049
1352.34	93.095
1355.92	6.09
1359.51	45.137
1363.09	45.576
1366.67	2.695
1370.24	12.927
1373.82	5.503
1377.39	1.463
1380.97	40.471
1384.54	11.393
1388.11	2.333
1391.68	10.639
1395.24	14.453
1398.81	2.15
1402.37	43.175
1405.93	43.666
1409.49	69.234
1413.05	47.834
1416.6	95.47
1420.16	80.168
1423.71	87.951
1427.26	102.842
1430.81	129.76
1434.36	170.357
1437.91	218.061
1441.45	282.153
1444.99	328.443
1448.54	366.827
1452.08	394.054
1455.61	366.303
1459.15	290.145
1462.68	293.554
1466.22	282.365
1469.75	249.639
1473.28	184.567
1476.81	108.701
1480.33	141.184
1483.86	77.021
1487.38	92.011
1490.9	114.383
1494.42	83.871
1497.94	110.801
1501.46	56.827
1504.97	58.808
1508.49	1.762
1512	0.482
1515.51	12.411
