Measurement: Raman, 514 nm, ccw, Raman Data Processed
Mineral: Titanite
Rruff sample: R050124
Ideal chemistry: CaTiSiO_5_
Locality: Capelinha, Minas Gerais, Brazil
Source: Carlos and Paulo Vasconcelos
Description: Yellow tabular crystal
Measured chemistry: Ca_1.00_(Ti_0.93_Al_0.05_Fe^3+^_0.02_)Si_1.00_O_4_(O)_1.00_
Pin_id: M00396
Orientation: Laser parallel to -a* (-1 0 0). Fiducial mark perpendicular to laser is parallel to -b [0 -1 0]
Raman shift (cm-1)	intensity
148.691	0
152.858	538.611
157.024	5235.34
161.187	9349.43
165.348	6868.39
169.507	3112.75
173.664	1853.28
177.819	2205.86
181.971	2736.1
186.122	2771.78
190.271	2443.71
194.417	2159.18
198.562	2739.93
202.704	3991.36
206.844	4890.63
210.983	4359.15
215.119	4117.6
219.253	4675.11
223.385	5237.53
227.515	6170.39
231.643	7276.91
235.769	8122.79
239.893	8771.11
244.014	12054.5
248.134	16954.1
252.252	20610.8
256.367	21024.8
260.481	17216.4
264.592	11803.2
268.702	8240.56
272.809	6811.04
276.915	8264.03
281.018	10872.9
285.119	14912.7
289.218	19571.8
293.316	17129.9
297.411	9177.32
301.504	5359.66
305.595	5202.71
309.684	7969.03
313.771	13772.6
317.856	15006
321.939	9552.25
326.02	7150.57
330.099	6936.59
334.176	6817.73
338.251	5862.2
342.323	5128.82
346.394	4966.7
350.463	4144.99
354.53	3113.07
358.594	2490.53
362.657	2157.09
366.718	1652.53
370.777	1269.71
374.833	1016.27
378.888	328.278
382.941	552.058
386.992	845.857
391.04	708.568
395.087	856.502
399.132	1284.16
403.174	1177.74
407.215	254.674
411.254	1571.67
415.29	4529.72
419.325	9856.59
423.358	13491.3
427.389	10723.9
431.417	6181.2
435.444	3319.92
439.469	2044.11
443.492	1345.29
447.512	789.853
451.531	172.977
455.548	225.442
459.563	603.324
463.576	557.383
467.587	362.193
471.596	404.956
475.603	1067.18
479.608	1921.58
483.611	2508.99
487.612	3054.23
491.611	3757.11
495.608	3968.51
499.603	3578.33
503.596	3306.52
507.587	3303.06
511.577	4067.94
515.564	4381.17
519.549	4432.76
523.533	5132.73
527.514	6201.09
531.493	7477.87
535.471	8453.09
539.447	9071.4
543.42	9400.01
547.392	8455.56
551.362	6595.16
555.329	4767.33
559.295	4087.43
563.259	5491.69
567.221	8475.63
571.181	10753.1
575.139	12477.4
579.095	15291
583.049	18704
587.002	23156.5
590.952	27918.6
594.9	34820.2
598.847	43801.7
602.792	51593.9
606.734	56296.8
610.675	55485.4
614.614	51554.9
618.55	46975.5
622.485	41913.5
626.418	35526.4
630.349	29881.5
634.279	25906.5
638.206	22853.3
642.131	20003.3
646.055	17704.3
649.976	15314.5
653.896	13812.1
657.814	13168.7
661.729	11725.7
665.643	10303.2
669.555	8931.11
673.465	8409.64
677.373	7988.77
681.28	7228.55
685.184	6208.9
689.087	5279.87
692.987	4921.46
696.886	4913.73
700.783	4477.55
704.677	3694.07
708.57	2863.63
712.462	2676.8
716.351	2764.2
720.238	2625.84
724.124	2150.88
728.007	1387.56
731.889	1395.09
735.769	1433.53
739.647	1422.87
743.523	910.125
747.397	324.293
751.269	93.399
755.139	389.429
759.008	457.436
762.875	286.429
766.739	219.44
770.602	359.144
774.463	29.546
778.323	287.064
782.18	230.774
786.035	134.265
789.889	311.209
793.741	165.082
797.591	248.774
801.439	536.23
805.285	368.257
809.129	190.018
812.971	379.994
816.812	1019.94
820.651	1541.05
824.488	1626.82
828.323	1389.02
832.156	1356.31
835.987	1648.99
839.817	2585.77
843.644	3549.96
847.47	4119.99
851.294	5159.72
855.116	6689.6
858.936	8599.87
862.755	11360.4
866.571	15881.2
870.386	19492.2
874.199	20283.3
878.01	19445
881.82	19337.5
885.627	17710.4
889.433	13086.9
893.236	8357.02
897.038	5363.63
900.838	3846.12
904.637	3302.59
908.433	3067.62
912.228	2412.97
916.021	1221.08
919.812	339.606
923.601	52.312
927.388	223.925
931.174	395.092
934.958	200.753
938.739	19.321
942.52	320.542
946.298	275.141
950.074	14.691
953.849	464.207
957.622	653.184
961.393	354.306
965.162	37.506
968.93	21.244
972.696	278.144
976.459	569.891
980.222	688.839
983.982	527.185
987.74	220.674
991.497	48.045
995.252	309.735
999.005	740.817
1002.76	1089.51
1006.51	1042
1010.25	961.493
1014	686.583
1017.74	582.421
1021.49	841.611
1025.23	1039.85
1028.96	1056.44
1032.7	647.354
1036.44	245.39
1040.17	25.55
1043.9	9.176
1047.63	295.733
1051.36	679.138
1055.09	819.66
1058.81	444.331
1062.54	216.847
1066.26	113.512
1069.97	295.854
1073.69	619.867
1077.41	916.825
1081.12	1033.55
1084.84	795.435
1088.55	388.936
1092.25	141.545
1095.96	288.162
1099.67	443.979
1103.37	754.541
1107.07	740.17
1110.77	485.805
1114.47	80.486
1118.16	12.511
1121.86	24.011
1125.55	295.479
1129.24	693.932
1132.93	903.133
1136.62	791.345
1140.31	478.411
1143.99	238.38
1147.67	188.188
1151.35	238.405
1155.03	622.389
1158.71	1042.78
1162.39	1061.33
1166.06	929.432
1169.73	640.357
1173.4	491.825
1177.07	690.897
1180.74	945.555
1184.4	1138.26
1188.07	1196.13
1191.73	1077.61
1195.39	1026.68
1199.05	592.627
1202.7	270.503
1206.36	278.436
1210.01	629.186
1213.66	898.464
1217.31	1141.81
1220.96	1218.27
1224.6	930.219
1228.25	510.957
1231.89	173.593
1235.53	181.127
1239.17	348.42
1242.81	665.578
1246.44	997.318
1250.08	1105.29
1253.71	1060.29
1257.34	597.256
1260.97	54.356
1264.6	19.04
1268.22	9.667
1271.85	194.63
1275.47	542.98
1279.09	881.525
1282.71	894.132
1286.33	648.313
1289.94	489.423
1293.56	158.827
1297.17	37.976
1300.78	164.089
1304.39	308.82
1307.99	781.021
1311.6	1008.62
1315.2	1102
1318.8	920.558
1322.4	566.784
1326	161.898
1329.6	46.043
1333.19	91.85
1336.79	183.197
1340.38	519.666
1343.97	811.848
1347.56	976.883
1351.14	874.122
1354.73	664.729
1358.31	430.409
1361.89	102.63
1365.47	72.37
1369.05	39.383
1372.63	115.704
1376.2	470.286
1379.78	900.68
1383.35	1107.67
1386.92	1001.27
1390.49	780.809
1394.05	516.426
1397.62	98.909
1401.18	4.719
1404.74	92.375
1408.3	173.511
1411.86	591.232
1415.42	768.381
1418.97	970.333
1422.53	1301.71
1426.08	967.758
1429.63	861.399
1433.18	419.374
1436.72	191.397
1440.27	231.983
1443.81	200.689
1447.36	293.422
1450.89	662.935
1454.43	998.956
1457.97	1282.74
1461.51	1442.46
1465.04	1270.47
1468.57	1057.19
1472.1	698.165
1475.63	352.621
1479.16	91.233
1482.68	1.337
1486.21	1
1489.73	454.823
1493.25	678.975
1496.77	1029.19
1500.29	1206.79
1503.8	1413.34
1507.32	1417.96
1510.83	1131.86
1514.34	672.433
