Measurement: Raman, 514 nm, ccw, Raman Data Processed
Mineral: Titanite
Rruff sample: R050114
Ideal chemistry: CaTiSiO_5_
Locality: Isthak Valley Iskardu, Northern Areas Gilgit, Pakistan
Source: Syed Shah
Description: Yellowish-brown fragment
Measured chemistry: (Ca_0.99_Na_0.01_)(Ti_0.96_Al_0.03_Fe^3+^_0.01_)Si_1.00_O_4_(O_0.95_F_0.05_)
Pin_id: L00251
Orientation: Laser parallel to b* (0 1 0). Fiducial mark perpendicular to laser is parallel to -c [0 0 -1]
Raman shift (cm-1)	intensity
47.49	0
51.717	69.297
55.942	246.017
60.165	344.522
64.386	448.585
68.604	327.406
72.82	134.823
77.034	4.404
81.246	72.138
85.455	64.213
89.663	171.011
93.868	499.523
98.07	821.177
102.271	1032.51
106.469	1360.13
110.665	1682.21
114.859	2014.22
119.05	2159.75
123.24	2574.49
127.427	2969.19
131.612	3297.07
135.794	3670.44
139.975	4576.87
144.153	5302.08
148.329	6224.73
152.503	8885.34
156.674	13137.4
160.843	16099.4
165.011	14351.3
169.175	10503.2
173.338	8105.6
177.499	7168.23
181.657	6821.14
185.813	6534.37
189.967	6442.24
194.119	6651.91
198.268	7216.29
202.415	7951.13
206.561	8696.44
210.703	9042.26
214.844	9395.35
218.983	10222.2
223.119	10900.7
227.253	11344.8
231.385	11228.3
235.515	10757.4
239.643	10958.5
243.768	12330.3
247.891	13981.5
252.012	14876.4
256.131	14148.8
260.248	12112.8
264.363	9987.64
268.475	8389.72
272.585	7869.79
276.693	8586.97
280.799	10434.8
284.903	14363.4
289.005	19662.7
293.104	19676.3
297.201	13536.8
301.296	8677.77
305.389	7489.24
309.48	9841.11
313.569	16033.4
317.655	18376.1
321.74	12479.2
325.822	7322.84
329.902	5006.94
333.98	3852.55
338.056	2972.65
342.129	2283.26
346.201	2020.39
350.27	1972.03
354.337	1658.21
358.402	1195.92
362.465	1004.17
366.526	1091.96
370.585	706.314
374.642	12.779
378.696	365.708
382.748	523.785
386.799	466.75
390.847	468.501
394.893	340.621
398.936	239.962
402.978	168.606
407.018	993.833
411.055	2709.04
415.091	6529.27
419.124	13535.3
423.155	19352.2
427.184	16729.8
431.211	10128.1
435.236	5297.3
439.259	2473.23
443.28	860.021
447.298	201.844
451.315	56.083
455.329	97.311
459.341	1143.17
463.352	3380.54
467.36	6279.37
471.366	7659.53
475.37	6860.74
479.372	5832.84
483.371	5355.78
487.369	5339.59
491.365	5004.26
495.358	4349.8
499.35	3786.22
503.339	3232.53
507.326	2697.73
511.311	2379.82
515.295	2415.8
519.276	2331.69
523.255	2579.48
527.232	3002.18
531.207	3629.79
535.179	4291.15
539.15	4501.47
543.119	4378.95
547.086	3786.1
551.05	3212.55
555.013	4105.44
558.973	6658.61
562.932	11638
566.888	17591
570.842	21345.1
574.795	22940.5
578.745	24396.9
582.693	27564.6
586.639	31655.5
590.583	36313.3
594.525	41404.5
598.465	45647.8
602.403	47448.4
606.339	46662.1
610.273	42961.6
614.205	37978.7
618.135	32826
622.063	27774.8
625.989	23817
629.912	20747.5
633.834	18423.3
637.754	16066.2
641.671	14000.1
645.587	12555.1
649.501	11021.2
653.412	10068.2
657.322	8886.14
661.23	8014.98
665.135	7054.72
669.039	6235.33
672.94	5876.82
676.84	5059.16
680.738	5162.36
684.633	4026.39
688.527	3661.24
692.418	3069.92
696.308	2781.8
700.195	2418.51
704.081	2157.25
707.964	1947.98
711.846	1689.46
715.726	1386.42
719.603	1225.45
723.479	1037.2
727.352	946.624
731.224	649.723
735.094	561.534
738.961	429.075
742.827	353.451
746.691	152.885
750.552	146.56
754.412	6.503
758.27	222.617
762.125	256.397
765.979	331.468
769.831	296.361
773.681	310.195
777.529	270.002
781.375	157.652
785.219	43.729
789.06	101.262
792.901	305.632
796.739	375.776
800.575	355.604
804.409	473.108
808.241	491.718
812.071	728.849
815.899	1023.62
819.726	1417.58
823.55	2051.7
827.372	2717.97
831.193	3225.37
835.011	3872.89
838.828	4848.51
842.642	5923.21
846.455	7897.98
850.266	10672.8
854.075	14287.6
857.881	20162.4
861.686	28177.2
865.489	41281.8
869.29	57256.4
873.089	60820.8
876.886	60055
880.682	57910.1
884.475	55179
888.266	47481.1
892.056	35386.6
895.843	24871.6
899.629	18802.4
903.413	16003.7
907.194	15306.3
910.974	13523.6
914.752	9723.45
918.528	5756.19
922.302	3282.37
926.074	1884.15
929.844	1058.12
933.613	645.345
937.379	403.862
941.144	218.551
944.906	113.01
948.667	2.993
952.426	60.296
956.183	151.026
959.938	250.329
963.691	541.246
967.442	888.775
971.191	1416.91
974.939	1532.65
978.684	1171.98
982.428	813.086
986.169	637.173
989.909	497.644
993.647	504.618
997.383	546.863
1001.12	559.64
1004.85	594.976
1008.58	607.867
1012.31	585.312
1016.03	603.306
1019.76	618.849
1023.48	531.938
1027.2	333.572
1030.92	238.733
1034.64	119.339
1038.36	119.29
1042.07	33.495
1045.78	82.405
1049.49	179.882
1053.2	207.288
1056.9	159.583
1060.61	98.36
1064.31	78.875
1068.01	374.911
1071.71	790.158
1075.41	1760.66
1079.1	3094.44
1082.79	4919.5
1086.48	6090.63
1090.17	5790.57
1093.86	4194.41
1097.55	2397.75
1101.23	1416.92
1104.91	937.43
1108.59	745.299
1112.27	541.984
1115.95	574.31
1119.62	545.276
1123.3	512.888
1126.97	484.152
1130.63	385.07
1134.3	406.637
1137.97	397.861
1141.63	426.749
1145.29	570.317
1148.95	830.575
1152.61	1252.53
1156.27	2042.18
1159.92	2959.51
1163.57	4216.53
1167.22	6584.22
1170.87	10291.6
1174.52	14322.4
1178.16	14241.4
1181.81	11055.3
1185.45	8297
1189.09	7499.27
1192.73	8013.97
1196.36	8209.4
1200	7708.23
1203.63	7428.32
1207.26	7397.97
1210.89	6950.24
1214.52	5599.75
1218.14	4452.08
1221.77	3891.21
1225.39	3946.95
1229.01	4055.02
1232.62	3910.91
1236.24	3757.11
1239.86	3616.93
1243.47	3339.93
1247.08	2789.01
1250.69	2279.62
1254.3	1742.6
1257.9	1433.11
1261.5	1096.86
1265.11	919.568
1268.71	775.235
1272.3	623.875
1275.9	495.109
1279.49	456.235
1283.09	491.73
1286.68	603.719
1290.27	755.62
1293.86	934.37
1297.44	1099.69
1301.03	1152.16
1304.61	956.353
1308.19	881.666
1311.77	785.646
1315.34	671.439
1318.92	702.028
1322.49	605.385
1326.06	545.502
1329.63	550.339
1333.2	570.944
1336.77	607.695
1340.33	651.907
1343.89	655.711
1347.46	607.068
1351.02	459.97
1354.57	356.366
1358.13	250.687
1361.68	135.15
1365.23	3.577
1368.79	4.865
1372.33	19.002
1375.88	62.173
1379.43	104.917
1382.97	77.726
1386.51	55.47
1390.05	56.132
1393.59	11.32
1397.13	105.891
1400.66	263.56
1404.19	311.388
1407.72	523.546
1411.25	725.154
1414.78	990.848
1418.31	1262.08
1421.83	1622.61
1425.36	1975.92
1428.88	2407.99
1432.39	2879.72
1435.91	3305.11
1439.43	3666.71
1442.94	3703.35
1446.45	3600.74
1449.96	3433.05
1453.47	3120.6
1456.98	2742.59
1460.48	2317.42
1463.99	1980.98
1467.49	1552.71
1470.99	1104.67
1474.49	881.072
1477.99	606.921
1481.48	421.657
1484.97	229.225
1488.46	140.175
1491.95	24.054
1495.44	50.727
1498.93	26.785
1502.41	0
