Measurement: Raman, 514 nm, ccw, Raman Data Processed
Mineral: Titanite
Rruff sample: R050114
Ideal chemistry: CaTiSiO_5_
Locality: Isthak Valley Iskardu, Northern Areas Gilgit, Pakistan
Source: Syed Shah
Description: Yellowish-brown fragment
Measured chemistry: (Ca_0.99_Na_0.01_)(Ti_0.96_Al_0.03_Fe^3+^_0.01_)Si_1.00_O_4_(O_0.95_F_0.05_)
Pin_id: L00085
Orientation: Laser parallel to a* (1 0 0). Fiducial mark perpendicular to laser is parallel to -b [0 -1 0]
Raman shift (cm-1)	intensity
93.868	0
98.07	172.979
102.271	79.83
106.469	98.192
110.665	856.212
114.859	696.45
119.05	989.414
123.24	1752.1
127.427	2595.83
131.612	3073.41
135.794	3902.26
139.975	5638.24
144.153	6335.86
148.329	6810.11
152.503	9857.78
156.674	15536.6
160.843	20395
165.011	18791.5
169.175	14377.7
173.338	12240.8
177.499	12315.1
181.657	12623.7
185.813	12358
189.967	12120.4
194.119	13012.3
198.268	14294.4
202.415	15817.2
206.561	17310.9
210.703	17005.9
214.844	16962
218.983	17429.4
223.119	18574.1
227.253	19637.3
231.385	20126.1
235.515	20319.3
239.643	21031.8
243.768	24269.4
247.891	28256.6
252.012	30677.3
256.131	29455.2
260.248	24330.2
264.363	18884.1
268.475	14818.5
272.585	13123.3
276.693	12616.7
280.799	13986.8
284.903	16482.4
289.005	18962.5
293.104	16046.7
297.201	10223.8
301.296	7943.61
305.389	8025.73
309.48	9979.82
313.569	14495.6
317.655	17214.5
321.74	13804.1
325.822	11533.9
329.902	11314.8
333.98	10841.9
338.056	9499.12
342.129	7851.72
346.201	7114.47
350.27	7287.46
354.337	6110.71
358.402	4674.25
362.465	4198.06
366.526	3722.16
370.585	2980.52
374.642	2047.13
378.696	1053.96
382.748	206.021
386.799	122.9
390.847	565.41
394.893	905.27
398.936	1172.21
402.978	1145.83
407.018	768.325
411.055	258.344
415.091	2515.12
419.124	6919.84
423.155	11651.1
427.184	10823.5
431.211	6786.97
435.236	3701.29
439.259	1894.32
443.28	842.98
447.298	383.235
451.315	206.167
455.329	360.855
459.341	1043.38
463.352	1881.82
467.36	2091.15
471.366	1199.23
475.37	324.853
479.372	166.809
483.371	844.983
487.369	1692.48
491.365	2537.31
495.358	2844.46
499.35	2861.94
503.339	2998.75
507.326	3186.9
511.311	3442.39
515.295	3927.23
519.276	4612.43
523.255	5217.98
527.232	6423.9
531.207	7850.18
535.179	9596.83
539.15	10423.9
543.119	10791.3
547.086	10042.7
551.05	8086.18
555.013	6362.14
558.973	4862.13
562.932	4971.91
566.888	7220.45
570.842	10935.2
574.795	14707.3
578.745	18560.4
582.693	23894.4
586.639	29029.3
590.583	35875.2
594.525	42631.7
598.465	48809.7
602.403	52389.1
606.339	52525.3
610.273	49524.9
614.205	44275.9
618.135	39054.8
622.063	33577.3
625.989	29075.7
629.912	25568.2
633.834	22330.2
637.754	20007.9
641.671	17598.3
645.587	15660.1
649.501	13813.1
653.412	12587.1
657.322	11352
661.23	10257.6
665.135	9183.98
669.039	8191.09
672.94	7708.94
676.84	6727.52
680.738	6106.82
684.633	5346.84
688.527	4967.57
692.418	4369.01
696.308	3981.14
700.195	3447.96
704.081	3060.83
707.964	2897.4
711.846	2456.4
715.726	2108.49
719.603	1880.17
723.479	1585.13
727.352	1337.13
731.224	1130.8
735.094	851.03
738.961	762.8
742.827	626.087
746.691	478.873
750.552	423.133
754.412	95.85
758.27	35.993
762.125	194.55
765.979	250.157
769.831	224.12
773.681	301.189
777.529	275.888
781.375	184.108
785.219	98.307
789.06	39.832
792.901	266.967
796.739	460.325
800.575	574.585
804.409	703.037
808.241	844.623
812.071	1048.59
815.899	1173.29
819.726	1342.96
823.55	1582.63
827.372	1781.26
831.193	1977.83
835.011	2143.34
838.828	2525.78
842.642	3080.1
846.455	3959.26
850.266	5247.22
854.075	6587.94
857.881	8258.38
861.686	10058.5
865.489	13688.3
869.29	18807.7
873.089	21916.6
876.886	22525.1
880.682	23303
884.475	23010.3
888.266	19837
892.056	14483.1
895.843	9658.61
899.629	6513.47
903.413	4728.67
907.194	3598.27
910.974	2642.82
914.752	1713.98
918.528	972.288
922.302	526.449
926.074	191.425
929.844	36.999
933.613	109.385
937.379	159.181
941.144	191.807
944.906	139.828
948.667	64.058
952.426	31.794
956.183	149.198
959.938	410.659
963.691	740.172
967.442	1078.59
971.191	1554.15
974.939	1794.31
978.684	1556
982.428	1449.04
986.169	1361.93
989.909	1346.41
993.647	1340.39
997.383	1291.4
1001.12	1201.6
1004.85	1200.2
1008.58	1290.01
1012.31	1351.08
1016.03	1494.4
1019.76	1640.98
1023.48	1691.83
1027.2	1607.94
1030.92	1584.32
1034.64	1535.98
1038.36	1395.93
1042.07	1146.16
1045.78	962.683
1049.49	716.51
1053.2	601.646
1056.9	489.08
1060.61	444.807
1064.31	414.921
1068.01	471.573
1071.71	569.733
1075.41	876.96
1079.1	1325.47
1082.79	1973.46
1086.48	2331.12
1090.17	2244.67
1093.86	1604.31
1097.55	882.1
1101.23	459.969
1104.91	255.81
1108.59	141.74
1112.27	64.101
1115.95	0.8
1119.62	14.82
1123.3	12.088
1126.97	17.488
1130.63	41.091
1134.3	30.785
1137.97	42.677
1141.63	0.982
1145.29	50.277
1148.95	222.249
1152.61	491.953
1156.27	934.412
1159.92	1548.63
1163.57	2261.61
1167.22	3625.36
1170.87	5830.87
1174.52	8132.17
1178.16	8287.26
1181.81	6381.14
1185.45	4773.83
1189.09	4192.34
1192.73	4374.67
1196.36	4530.83
1200	4162.61
1203.63	3839.93
1207.26	3725.26
1210.89	3626.18
1214.52	3027.46
1218.14	2582.14
1221.77	2603.36
1225.39	2773.37
1229.01	3025.41
1232.62	3045.93
1236.24	3113.61
1239.86	3105.58
1243.47	3028.45
1247.08	2624.76
1250.69	2200.58
1254.3	1833.19
1257.9	1457.19
1261.5	1229.77
1265.11	1119.98
1268.71	1023.27
1272.3	921.59
1275.9	934.186
1279.49	950.449
1283.09	1030.57
1286.68	1234.13
1290.27	1550.21
1293.86	1887.74
1297.44	2176.39
1301.03	2170.72
1304.61	2057.38
1308.19	1970.36
1311.77	1852.12
1315.34	1713.8
1318.92	1558.59
1322.49	1326.98
1326.06	1105.41
1329.63	864.697
1333.2	792.786
1336.77	682.731
1340.33	643.621
1343.89	593.464
1347.46	522.283
1351.02	431.142
1354.57	338.143
1358.13	247.335
1361.68	145.288
1365.23	79.798
1368.79	34.787
1372.33	27.453
1375.88	54.295
1379.43	63.728
1382.97	77.293
1386.51	72.663
1390.05	42.659
1393.59	8.8
1397.13	59.676
1400.66	125.751
1404.19	182.873
1407.72	273.094
1411.25	374.492
1414.78	473.103
1418.31	584.968
1421.83	821.147
1425.36	978.7
1428.88	1261.68
1432.39	1472.13
1435.91	1769.58
1439.43	1986.1
1442.94	1996.28
1446.45	1935.93
1449.96	1884.97
1453.47	1707.58
1456.98	1458.35
1460.48	1281.5
1463.99	1030.51
1467.49	790.613
1470.99	578.745
1474.49	466.74
1477.99	328.112
1481.48	237.713
1484.97	151.143
1488.46	89.712
1491.95	28.131
1495.44	28.151
1498.93	18.898
1502.41	4.772
