Measurement: Raman, 514 nm, ccw, Raman Data Processed
Mineral: Titanite
Rruff sample: R050039
Ideal chemistry: CaTiSiO_5_
Locality: Kingman, Arizona, USA
Source: University of Arizona Mineral Museum
Description: Black fragment from a single crystal
Measured chemistry: (Ca_0.95_Y_0.05_)(Ti_0.85_Al_0.10_Fe^3+^_0.06_)Si_1.00_O_4_(O_0.93_F_0.07_)
Pin_id: L00539
Orientation: Laser parallel to c* (0 0 1). Fiducial mark perpendicular to laser is parallel to a [1 0 0]
Raman shift (cm-1)	intensity
132.432	0
136.599	385.93
140.764	47.137
144.927	165.914
149.088	461.904
153.247	563.785
157.404	969.242
161.559	1069.87
165.711	1170.6
169.862	1228.14
174.011	1369.66
178.158	1592.43
182.303	1753.92
186.446	1932.7
190.587	2358.99
194.726	2533.09
198.862	3004.26
202.997	3321.07
207.13	3832.72
211.261	4288.48
215.39	4827.66
219.517	5437.21
223.642	5818.58
227.765	5747.54
231.886	5079.56
236.005	4823.3
240.122	4812.27
244.237	4930.25
248.35	5155.93
252.461	5456.1
256.57	5377.14
260.677	4818.26
264.782	4209.46
268.885	3390.76
272.986	2422.16
277.085	2033.63
281.182	1525.13
285.278	1596.63
289.371	1728.09
293.462	2079.47
297.552	2499.86
301.639	3477.14
305.724	3895.72
309.808	4353.4
313.889	4585.04
317.969	4629.84
322.046	4557.27
326.122	4386.94
330.196	4318.53
334.267	3951.8
338.337	3493.48
342.405	2789.78
346.471	2769.6
350.535	2549.87
354.597	2555.78
358.657	2764.56
362.715	2676.66
366.771	2500.88
370.825	2360.01
374.877	1812.74
378.928	1234.01
382.976	955.4
387.023	756.936
391.067	628.602
395.11	670.375
399.15	662.225
403.189	974.094
407.226	1165.86
411.261	1857.42
415.294	2358.67
419.325	3169.59
423.354	3457.9
427.381	3280.37
431.406	3140.22
435.43	2749.69
439.451	2268.78
443.471	1897.48
447.488	1855.79
451.504	2063.68
455.518	2171.16
459.53	2648.28
463.54	3028.88
467.548	3302.61
471.554	2969.74
475.558	2590.05
479.561	2183.56
483.561	1580.19
487.559	956.6
491.556	422.763
495.551	88.687
499.544	65.823
503.535	401.602
507.524	459.913
511.511	415.535
515.496	405.39
519.48	372.472
523.461	162.209
527.441	33.948
531.418	183.138
535.394	379.558
539.368	688.536
543.34	870.993
547.311	936.018
551.279	910.571
555.245	884.653
559.21	668.259
563.173	851.386
567.133	984.034
571.092	1216.2
575.049	2087.89
579.005	2799.11
582.958	3419.85
586.909	3950.12
590.859	4549.93
594.807	5169.27
598.753	5878.16
602.697	6366.59
606.639	6924.57
610.579	7272.1
614.518	7259.18
618.454	7505.83
622.389	7962.04
626.322	8147.86
630.253	8123.75
634.182	8230.28
638.109	8057.61
642.035	8225.58
645.958	8344.64
649.88	8224
653.8	8186.65
657.718	7891.56
661.634	7515.76
665.549	7279.13
669.461	6896.89
673.372	6637.17
677.281	6174.99
681.188	5910.95
685.093	5739.98
688.997	5214.75
692.898	5048.55
696.798	4713.04
700.696	4617.43
704.592	4611.73
708.486	4265.92
712.378	3950.02
716.269	3794.03
720.158	3415.5
724.045	3171.79
727.93	2948.35
731.813	2589.23
735.694	2202.84
739.574	1979.13
743.452	1859.84
747.328	1563.24
751.202	1416.58
755.075	1259.85
758.945	833.075
762.814	536.242
766.681	659.357
770.546	573.482
774.409	475.441
778.271	278.924
782.131	300.748
785.989	361.575
789.845	359.77
793.699	276.09
797.552	390.116
801.402	289.68
805.251	372.346
809.098	74.021
812.944	194.433
816.787	67.146
820.629	29.637
824.469	63.123
828.307	237.785
832.144	473.778
835.978	630.968
839.811	1168.89
843.642	1616.92
847.472	2114.82
851.299	2672.51
855.125	3640
858.949	4867.28
862.771	5984.34
866.591	7601.2
870.41	9307.83
874.227	11043.4
878.042	12380.5
881.855	13296.4
885.667	13652.2
889.476	13577.7
893.284	12853
897.09	11868.1
900.895	9812.96
904.698	7817.57
908.499	6351.96
912.298	4886.11
916.095	3560.02
919.891	2534.77
923.685	1457.13
927.477	790.323
931.267	73.272
935.056	294.291
938.843	323.652
942.628	255.56
946.411	290.108
950.193	66.858
953.973	314.379
957.751	984.683
961.527	1669.56
965.302	2525.94
969.075	3500.25
972.846	4266.71
976.615	4849.38
980.383	5117.03
984.149	5072.09
987.913	5087.01
991.675	5138.98
995.436	5028.43
999.195	4777.58
1002.95	4546.45
1006.71	4395.05
1010.46	4463.36
1014.21	4541.42
1017.96	4679.21
1021.71	4996.74
1025.46	5214.03
1029.2	5485.68
1032.95	5877.89
1036.69	6024.47
1040.43	6270.83
1044.17	5946.97
1047.9	5772.9
1051.64	5048.63
1055.37	4534.15
1059.1	3839.48
1062.83	3154.62
1066.56	2549.57
1070.29	2334.34
1074.01	2148.92
1077.73	2233.32
1081.46	2463.4
1085.17	2676.02
1088.89	2469.92
1092.61	2072.43
1096.32	1610.26
1100.04	1006.48
1103.75	414.612
1107.46	208.637
1111.16	102.982
1114.87	87.793
1118.57	36.802
1122.28	21.062
1125.98	64.771
1129.67	263.069
1133.37	304.412
1137.07	236.104
1140.76	47.035
1144.45	532.368
1148.14	907.929
1151.83	1563.72
1155.52	2479.71
1159.21	3735.9
1162.89	4922.29
1166.57	6358.9
1170.25	8035.72
1173.93	9752.75
1177.61	10440
1181.28	10267.4
1184.96	9585.1
1188.63	9352.93
1192.3	8880.96
1195.97	9229.21
1199.64	9067.63
1203.3	8976.13
1206.97	8844.68
1210.63	8353.21
1214.29	7751.68
1217.95	7629.99
1221.6	8008.08
1225.26	8635.85
1228.91	9633.2
1232.57	10800.3
1236.21	11848.1
1239.86	12478.2
1243.51	12562.1
1247.16	12159
1250.8	11590.7
1254.44	10484.4
1258.08	9668.86
1261.72	8535.53
1265.36	7652.77
1268.99	7068.01
1272.63	6560.01
1276.26	6021.79
1279.89	5760.87
1283.52	5941.99
1287.15	6138.25
1290.77	6712.62
1294.4	7176.76
1298.02	7619.5
1301.64	8110.4
1305.26	8371.86
1308.88	8693.31
1312.49	8754.6
1316.11	8686.1
1319.72	8546.1
1323.33	8257.52
1326.94	7838.15
1330.55	7405.35
1334.15	6794.45
1337.76	6235.45
1341.36	5461.3
1344.96	4882.3
1348.56	4179.39
1352.16	3741.81
1355.75	3249.41
1359.35	2672.14
1362.94	2397.52
1366.53	1975.54
1370.12	1465.41
1373.71	1038.05
1377.3	641.588
1380.88	432.894
1384.46	309.188
1388.05	119.381
1391.63	80.962
1395.2	119.242
1398.78	43.436
1402.36	30.4
1405.93	76.404
1409.5	25.17
1413.07	19.762
1416.64	89.173
1420.21	63.505
1423.78	69.814
1427.34	13.117
1430.9	195.547
1434.46	175.216
1438.02	208.568
1441.58	362.399
1445.13	402.931
1448.69	459.945
1452.24	378.856
1455.79	336.955
1459.34	431.36
1462.89	295.05
1466.44	164.731
1469.98	255.162
1473.53	150.605
1477.07	143.32
1480.61	120.873
1484.14	86.648
1487.68	239.783
1491.22	217.912
1494.75	153.13
1498.28	172.611
1501.81	133.849
1505.34	144.637
1508.87	138.513
1512.4	331.802
1515.92	26.114
1519.44	1.293
