Measurement: Raman, 514 nm, ccw, Raman Data Processed
Mineral: Titanite
Rruff sample: R050124
Ideal chemistry: CaTiSiO_5_
Locality: Capelinha, Minas Gerais, Brazil
Source: Carlos and Paulo Vasconcelos
Description: Yellow tabular crystal
Measured chemistry: Ca_1.00_(Ti_0.93_Al_0.05_Fe^3+^_0.02_)Si_1.00_O_4_(O)_1.00_
Pin_id: M00222
Orientation: Laser parallel to -b* (0 -1 0). Fiducial mark perpendicular to laser is parallel to -c [0 0 -1]
Raman shift (cm-1)	intensity
123.422	0
127.59	142.44
131.756	240.716
135.92	89.298
140.082	58.556
144.242	411.935
148.4	344.266
152.556	547.356
156.71	2944.96
160.862	7188.77
165.012	9020.08
169.16	5841.35
173.306	3378.27
177.449	3258.46
181.591	4010.48
185.731	4063.37
189.869	3231.03
194.005	3650.25
198.139	4406.69
202.271	4483.63
206.4	5770.52
210.528	6680.42
214.654	6344.81
218.778	5914.78
222.9	7111.19
227.019	7954.53
231.137	7845.11
235.253	7773.19
239.367	8578.92
243.479	9842.42
247.589	12083.7
251.697	14986.9
255.803	17299.9
259.906	15560.3
264.008	11505.7
268.108	8797.91
272.206	7089.86
276.302	5953.2
280.396	5685.04
284.488	7145.29
288.578	9854.38
292.666	10612.1
296.753	8019.28
300.837	7707.24
304.919	8550.4
308.999	8351.97
313.077	10314.2
317.154	13676.6
321.228	11079.2
325.3	7591.65
329.371	6923.7
333.439	7665.15
337.506	7315.9
341.57	5605.89
345.633	4575.06
349.693	4113.4
353.752	3330.85
357.809	2597.12
361.863	2120.73
365.916	1908.67
369.967	1640.08
374.016	986.038
378.063	427.536
382.108	33.547
386.151	157.826
390.192	368.721
394.231	623.421
398.269	777.386
402.304	642.06
406.337	584.296
410.369	146.516
414.398	1679.54
418.426	4715.97
422.452	7742.77
426.475	7243.39
430.497	4868.6
434.517	3342.44
438.535	2502.84
442.551	2039.85
446.565	2059.51
450.577	2552.81
454.588	3453.6
458.596	5316.78
462.602	8817.39
466.607	14617.6
470.61	14737.4
474.61	8916.72
478.609	5115.67
482.606	3704.13
486.601	3049.04
490.594	2412.45
494.585	2300.38
498.575	2320.84
502.562	2396.65
506.548	2311.76
510.531	2324.17
514.513	2601.91
518.493	3296.97
522.47	3887.4
526.446	4279.21
530.421	5140.44
534.393	6895.87
538.363	8862.44
542.331	9328.08
546.298	9148.42
550.263	9222.37
554.225	8905.99
558.186	8034.98
562.145	7767.86
566.103	8125.42
570.058	8385.76
574.011	8546.74
577.963	8794.44
581.912	9632.23
585.86	12270.2
589.806	16258.4
593.75	20896.9
597.692	25727.2
601.632	30327.4
605.571	35182.3
609.507	38462.9
613.442	36818.2
617.375	31812.5
621.306	27998.8
625.235	25392.2
629.162	22516
633.087	18454.8
637.011	15057.6
640.932	13001.3
644.852	12403.9
648.77	11396.1
652.686	9890.51
656.6	8552.91
660.513	7237.25
664.423	6981.74
668.332	6356.6
672.239	5401.87
676.144	4477.61
680.047	4063.84
683.948	3980.47
687.848	3607.55
691.746	3085.12
695.641	2437.21
699.535	2306.12
703.427	2154.6
707.318	1970.94
711.206	1499.41
715.093	1164.58
718.978	963.75
722.861	1031.66
726.742	1017.4
730.621	929.823
734.499	540.684
738.374	369.001
742.248	355.894
746.12	341.312
749.99	173.233
753.859	32.384
757.725	140.521
761.59	63.336
765.453	19.919
769.314	52.811
773.174	136.568
777.031	164.59
780.887	173.079
784.741	83.213
788.593	68.752
792.443	92.767
796.291	192.556
800.138	145.626
803.983	98.067
807.826	42.959
811.667	40.161
815.507	191.029
819.344	238.68
823.18	472.846
827.014	881.559
830.847	1120.02
834.677	1200.03
838.506	1425.32
842.333	1855.48
846.158	2537.91
849.981	3643.57
853.803	4891.28
857.623	6209.03
861.441	7886.77
865.257	10734.5
869.071	15052.1
872.884	17869.6
876.695	15787
880.504	13064.1
884.311	11193.5
888.117	9073.36
891.92	6783
895.722	5261.44
899.523	4252.5
903.321	4039.59
907.118	4347.52
910.913	5019.34
914.706	4235.39
918.497	2649.38
922.287	1387.8
926.075	839.172
929.861	473.041
933.645	308.604
937.428	348.753
941.208	251.208
944.987	195.696
948.765	178.951
952.54	108.387
956.314	157.335
960.086	145.497
963.856	223.736
967.625	174.439
971.392	69.351
975.157	2.418
978.92	0.899
982.682	4.718
986.441	121.521
990.199	146.013
993.956	150.469
997.71	401.174
1001.46	1356.71
1005.21	814.396
1008.96	603.555
1012.71	712.708
1016.46	743.72
1020.2	843.165
1023.94	622.811
1027.68	455.779
1031.42	240.429
1035.16	119.575
1038.9	77.148
1042.63	11.97
1046.36	37.737
1050.09	76.248
1053.82	53.577
1057.55	47.291
1061.27	42.826
1065	100.753
1068.72	141.215
1072.44	177.189
1076.16	265.765
1079.87	426.985
1083.59	606.278
1087.3	554.672
1091.01	488.055
1094.72	500.098
1098.43	305.566
1102.14	188.739
1105.84	235.397
1109.55	236.805
1113.25	215.756
1116.94	205.571
1120.64	261.839
1124.34	229.033
1128.03	144.604
1131.73	194.9
1135.42	138.292
1139.11	113.732
1142.8	119.961
1146.48	167.966
1150.16	132.146
1153.85	87.997
1157.53	136.986
1161.21	102.496
1164.88	133.218
1168.56	121.452
1172.23	119.24
1175.91	147.625
1179.58	119.972
1183.25	173.19
1186.91	169.194
1190.58	165.484
1194.24	110.081
1197.91	121.296
1201.57	48.474
1205.23	94.333
1208.88	104.108
1212.54	39.559
1216.19	35.965
1219.85	98.275
1223.5	65.881
1227.14	86.385
1230.79	62.69
1234.44	42.798
1238.08	35.208
1241.72	96.079
1245.37	42.751
1249	57.97
1252.64	146.396
1256.28	108.267
1259.91	106.182
1263.54	130.279
1267.17	75.358
1270.8	90.95
1274.43	117.444
1278.06	59.4
1281.68	54.586
1285.3	100.841
1288.92	71.644
1292.54	57.467
1296.16	118.722
1299.78	45.852
1303.39	121.493
1307	99.783
1310.61	72.245
1314.22	121.677
1317.83	122.989
1321.44	122.082
1325.04	39.032
1328.64	121.578
1332.24	100.093
1335.85	138.975
1339.44	58.192
1343.04	96.388
1346.63	33.432
1350.23	26.65
1353.82	56.667
1357.41	17.727
1360.99	62.266
1364.58	139.122
1368.17	79.353
1371.75	108.941
1375.33	53.81
1378.91	146.909
1382.49	218.317
1386.07	31.874
1389.64	59.116
1393.21	187.631
1396.79	108.929
1400.36	81.18
1403.92	63.633
1407.49	151.404
1411.06	116.228
1414.62	71.975
1418.18	51.958
1421.74	49.092
1425.3	0
