Measurement: Raman, 514 nm, ccw, Raman Data Processed
Mineral: Titanite
Rruff sample: R050124
Ideal chemistry: CaTiSiO_5_
Locality: Capelinha, Minas Gerais, Brazil
Source: Carlos and Paulo Vasconcelos
Description: Yellow tabular crystal
Measured chemistry: Ca_1.00_(Ti_0.93_Al_0.05_Fe^3+^_0.02_)Si_1.00_O_4_(O)_1.00_
Pin_id: M00222
Orientation: Laser parallel to -b* (0 -1 0). Fiducial mark perpendicular to laser is parallel to -c [0 0 -1]
Raman shift (cm-1)	intensity
126.201	0
130.367	299.276
134.532	13.911
138.695	263.362
142.856	606.009
147.014	302.005
151.171	316.001
155.325	2182.26
159.478	4297.31
163.629	5763.77
167.777	4389.88
171.924	2520.88
176.068	1494.35
180.211	1368.96
184.351	1983.96
188.49	1440.57
192.626	1158.79
196.761	1378.73
200.893	2022.56
205.024	1918.38
209.152	1887.47
213.279	2412.11
217.403	2613.15
221.526	2071.24
225.646	2626.86
229.765	3410.27
233.881	3561.67
237.996	3011.18
242.108	3992.8
246.219	5735.07
250.328	6419.53
254.434	7218.49
258.539	7926.43
262.641	6973.58
266.742	4823.56
270.84	3710.93
274.937	3532.33
279.032	4122.7
283.125	4411.82
287.215	6991.93
291.304	11277.8
295.391	9594.91
299.476	5192.52
303.558	3902.55
307.639	4571.45
311.718	6202.68
315.795	9054.04
319.87	8705.31
323.943	5496.34
328.014	3226.99
332.083	2447.09
336.15	2496.56
340.215	2525.33
344.279	1653.37
348.34	1280.68
352.399	1187.22
356.457	1012.88
360.512	557.358
364.565	140.484
368.617	172.27
372.666	622.714
376.714	151.775
380.76	620.604
384.803	285.074
388.845	208.389
392.885	320.007
396.923	710.585
400.959	303.552
404.993	131.561
409.025	584.938
413.055	1536.91
417.084	4126.91
421.11	8643.8
425.134	9547.14
429.157	5597.25
433.177	2835.75
437.196	1973.86
441.213	1371.78
445.227	519.524
449.24	117.042
453.251	844.176
457.26	1530.92
461.267	2157.32
465.272	3873.23
469.276	5928.79
473.277	5714.01
477.276	3798.73
481.274	2443.08
485.27	2286.92
489.263	2640.32
493.255	2603.24
497.245	1755.76
501.233	1367.84
505.219	1799.39
509.203	1900.42
513.186	1450.94
517.166	1198.23
521.145	1913.62
525.121	2514.9
529.096	2484.03
533.069	2550.98
537.04	3078.05
541.009	3806.1
544.976	4144.1
548.941	2962.72
552.905	2374.11
556.866	2950.43
560.826	4909.9
564.784	6865.5
568.74	8084.73
572.694	8159.79
576.646	8846.35
580.596	9382.99
584.544	10379.8
588.491	11249.3
592.435	14727.3
596.378	19004.8
600.319	22702.4
604.258	24765.4
608.195	25466.6
612.131	26398.2
616.064	25892
619.995	21820.9
623.925	18209.6
627.853	15504.8
631.779	13606.1
635.703	12162.5
639.625	10363.5
643.546	8138.92
647.464	7389.76
651.381	7550.37
655.296	7098.21
659.209	5530.02
663.12	4222.14
667.029	4024.73
670.937	4447.74
674.842	4081.34
678.746	3365.49
682.648	2230.13
686.548	2255.27
690.447	2651.38
694.343	2648.26
698.238	1676.16
702.13	825.552
706.021	1046.38
709.91	1198.6
713.798	1442.67
717.683	1068.45
721.567	355.502
725.448	393.613
729.328	852.177
733.206	1311.2
737.083	590.636
740.957	99.531
744.83	39.191
748.701	421.586
752.57	542.676
756.437	443.922
760.302	5.349
764.166	382.925
768.027	51.331
771.887	670.297
775.745	602.002
779.602	76.33
783.456	424.695
787.309	2.856
791.16	413.438
795.009	684.851
798.856	376.246
802.702	194.01
806.545	242.461
810.387	669.015
814.227	1372.58
818.065	966.517
821.902	768.801
825.737	881.991
829.569	1299.33
833.401	1965.27
837.23	2784.69
841.057	2855.61
844.883	2775.85
848.707	3759.72
852.529	5553.74
856.35	8177.99
860.168	10643
863.985	13427.3
867.8	18032.7
871.613	21767
875.425	21441.3
879.234	20125.4
883.042	17820.6
886.848	13632.7
890.653	9128.39
894.455	6733.36
898.256	6005.83
902.055	6004.03
905.852	6158.45
909.648	5890.94
913.442	4322.76
917.233	3089.27
921.024	2404.41
924.812	1863.78
928.599	1416.47
932.384	705.729
936.167	92.577
939.948	3.711
943.728	788.639
947.506	1239.25
951.282	914.881
955.056	438.497
958.829	306.666
962.6	38.667
966.369	262.312
970.136	1051.88
973.902	1081.97
977.666	411.212
981.428	38.644
985.188	24.395
988.947	131.607
992.704	640.877
996.459	1129.59
1000.21	1848.72
1003.96	975.695
1007.71	190.037
1011.46	453.269
1015.21	946.603
1018.95	1534.73
1022.7	1837.86
1026.44	1239.54
1030.18	160.854
1033.91	28.204
1037.65	462.158
1041.39	782.879
1045.12	1082.55
1048.85	1122.51
1052.58	530.807
1056.31	211.214
1060.03	163.024
1063.76	523.809
1067.48	1200.36
1071.2	1257.43
1074.92	1323.53
1078.63	1159.44
1082.35	485.578
1086.06	350.695
1089.78	962.446
1093.49	1227.1
1097.19	1462.07
1100.9	1367.96
1104.61	914.222
1108.31	11.548
1112.01	138.768
1115.71	444.194
1119.41	1055.06
1123.11	1037.42
1126.8	1238.69
1130.5	1102.96
1134.19	567.394
1137.88	152.597
1141.57	168.996
1145.25	474.088
1148.94	1043.04
1152.62	1337.06
1156.3	1195.72
1159.98	943.435
1163.66	39.117
1167.34	116.952
1171.01	533.782
1174.68	1160.37
1178.36	1635.54
1182.02	2027.33
1185.69	1493.23
1189.36	690.194
1193.02	89.918
1196.69	405.316
1200.35	635.476
1204.01	887.885
1207.66	1296.49
1211.32	1847.03
1214.98	1439.97
1218.63	620.583
1222.28	323.797
1225.93	188.428
1229.58	452.16
1233.22	775.488
1236.87	1429.99
1240.51	1743.45
1244.15	1565.64
1247.79	1308.29
1251.43	632.672
1255.07	137.615
1258.7	174.701
1262.33	616.033
1265.96	1356.49
1269.59	1575.7
1273.22	1994.96
1276.85	1882.46
1280.47	883.176
1284.1	89.777
1287.72	95.637
1291.34	254.502
1294.95	494.514
1298.57	977.787
1302.19	1574.01
1305.8	1717.26
1309.41	1390.36
1313.02	982.311
1316.63	694.186
1320.23	286.514
1323.84	59.605
1327.44	213.365
1331.05	866.449
1334.64	1409.06
1338.24	1552.36
1341.84	1673.92
1345.43	1316.62
1349.03	460.57
1352.62	84.869
1356.21	110.281
1359.8	215.443
1363.39	622.469
1366.97	916.012
1370.56	1284.8
1374.14	1924.27
1377.72	1564.56
1381.3	1425.07
1384.87	1052.02
1388.45	291.99
1392.02	58.459
1395.6	106.725
1399.17	600.59
1402.74	895.525
1406.3	1309.85
1409.87	1958.94
1413.43	2084.61
1417	1487.75
1420.56	1001
1424.12	857.5
1427.67	327.789
1431.23	0
