Measurement: Raman, 514 nm, ccw, Raman Data Processed
Mineral: Titanite
Rruff sample: R050039
Ideal chemistry: CaTiSiO_5_
Locality: Kingman, Arizona, USA
Source: University of Arizona Mineral Museum
Description: Black fragment from a single crystal
Measured chemistry: (Ca_0.95_Y_0.05_)(Ti_0.85_Al_0.10_Fe^3+^_0.06_)Si_1.00_O_4_(O_0.93_F_0.07_)
Pin_id: L00107
Orientation: Laser parallel to (-1 0 -1). Fiducial mark perpendicular to laser is parallel to b [0 1 0]
Raman shift (cm-1)	intensity
129.268	0
133.427	28.524
137.584	24.818
141.74	12.78
145.893	33.245
150.044	9.349
154.193	200.5
158.341	310.976
162.486	385.801
166.63	374.678
170.771	625.201
174.911	625.39
179.049	643.155
183.184	847.223
187.318	1126.77
191.45	1261.47
195.58	1271.76
199.708	1427.92
203.834	1439.28
207.958	1665.05
212.081	2094.45
216.201	2594.64
220.32	2925.2
224.436	2936.73
228.551	2769.57
232.663	2393.89
236.774	1899.73
240.883	1777.12
244.99	1906.46
249.095	2049.08
253.198	2287.26
257.299	2371.35
261.399	2241.31
265.496	2314.95
269.592	2049.31
273.685	1783.61
277.777	1957.83
281.867	2101.95
285.955	2175.93
290.041	2529.73
294.125	3143.25
298.207	3594.35
302.288	4249.58
306.366	5259.59
310.443	6312.39
314.517	6988.42
318.59	7366.76
322.661	7247.03
326.73	6389.01
330.797	5442.47
334.863	4637.24
338.926	4013.16
342.988	3580.13
347.047	3658.02
351.105	3416.77
355.161	3714.97
359.215	3933.89
363.267	4081.72
367.317	4343.72
371.366	4768.59
375.412	5153.67
379.457	5522.05
383.5	6117.6
387.541	6906.73
391.58	7657.52
395.617	8167.11
399.652	8580.96
403.686	9304.86
407.717	10237.5
411.747	11030.1
415.775	11402.5
419.801	11304.5
423.825	10586.3
427.848	9537.59
431.868	8018.43
435.887	6428.8
439.904	5208.69
443.918	4418.09
447.932	2967.01
451.943	2435.46
455.952	2033.52
459.96	1951.48
463.966	1709.36
467.969	1937.08
471.972	2084.58
475.972	2441.83
479.97	2668.8
483.967	2415.47
487.961	2321.81
491.954	2217.79
495.945	1733.4
499.935	1298.62
503.922	863.411
507.908	697.763
511.891	401.658
515.873	84.919
519.853	7.389
523.832	104.905
527.808	251.565
531.783	174.215
535.756	269.146
539.727	286.534
543.696	351.248
547.663	249.692
551.629	175.009
555.592	52.42
559.554	218.687
563.514	741.281
567.473	1478.95
571.429	2138.27
575.384	2577.06
579.337	2805.31
583.288	2913.05
587.237	2830.26
591.185	2896.97
595.13	2913.18
599.074	2778.91
603.016	2874.15
606.957	2789.41
610.895	2917.51
614.832	2902.32
618.767	2805.74
622.7	2898.72
626.631	2571.26
630.561	2643.73
634.489	2506.83
638.415	2670.74
642.339	2585.2
646.261	2519.57
650.182	2323.57
654.101	2427.17
658.018	2440.41
661.933	2213.28
665.847	2225.82
669.758	2188.05
673.668	2108.74
677.577	2047.69
681.483	1814.54
685.388	1835.37
689.29	1537.67
693.192	1671.41
697.091	1632.49
700.988	1448.09
704.884	1266.45
708.778	1103.9
712.67	1045.78
716.561	797.099
720.45	738.499
724.337	680.097
728.222	461.906
732.105	653.938
735.987	266.204
739.867	338.716
743.745	201.485
747.622	24.522
751.496	67.838
755.369	151.443
759.241	4.649
763.11	75.971
766.978	56.025
770.844	72.456
774.708	93.66
778.57	59.029
782.431	218.854
786.29	308.288
790.147	351.18
794.003	418.123
797.857	1018.25
801.709	1116.46
805.559	1034
809.407	1091.94
813.254	1570.67
817.099	1730.44
820.943	2291.23
824.784	2423
828.624	3125.78
832.462	3369.34
836.299	3953.65
840.134	4609
843.967	5345.63
847.798	6433.48
851.628	7682.66
855.455	9413.39
859.281	11415.5
863.106	13498.8
866.929	15973.2
870.75	18138.2
874.569	20023.6
878.386	20929.4
882.202	21625.5
886.016	21922
889.829	21978.8
893.639	19095.9
897.448	16203.4
901.256	13721.2
905.061	10789.3
908.865	8997.81
912.667	6356.48
916.468	4634.02
920.267	3240.11
924.064	1859.79
927.859	1039.9
931.653	250.329
935.445	50.942
939.235	249.309
943.024	451.531
946.811	415.849
950.596	58.55
954.379	693
958.161	1789.64
961.941	2839.74
965.72	3958.31
969.496	5646.3
973.272	6870.81
977.045	7624.95
980.817	7832
984.587	7495.18
988.355	7151.84
992.122	6748.66
995.887	6215.63
999.65	5762.73
1003.41	5489.95
1007.17	5287.28
1010.93	5204.7
1014.69	5532.2
1018.44	5959.77
1022.2	7157.4
1025.95	8585.09
1029.7	9602.84
1033.44	10210.7
1037.19	10568.5
1040.94	10686.5
1044.68	10524.4
1048.42	10242.5
1052.16	9340.6
1055.9	8098.77
1059.64	6486.99
1063.37	5555.27
1067.1	4783.63
1070.84	4122.1
1074.57	3670.66
1078.29	4099.28
1082.02	4027.96
1085.75	3981.75
1089.47	3290.37
1093.19	2300.44
1096.91	1401.49
1100.63	614.856
1104.35	164.681
1108.06	5.031
1111.78	184.676
1115.49	245.045
1119.2	216.438
1122.91	248.891
1126.61	292.266
1130.32	86.417
1134.02	169.339
1137.72	855.365
1141.42	1321.67
1145.12	2148.26
1148.82	3385.14
1152.52	4802.33
1156.21	6919.81
1159.9	9176.57
1163.59	12145.6
1167.28	15243.9
1170.97	18052.4
1174.65	19471.3
1178.34	19980.3
1182.02	19029.6
1185.7	18159.2
1189.38	17629.1
1193.06	17499.2
1196.73	17279.6
1200.41	16800.2
1204.08	16251
1207.75	15082.2
1211.42	14333.6
1215.09	14105.3
1218.76	14557.4
1222.42	15199.7
1226.08	16472.4
1229.75	17905.4
1233.41	18468.9
1237.06	19743.6
1240.72	20110.4
1244.38	20069.4
1248.03	19570
1251.68	18169.4
1255.33	16944.6
1258.98	14920.1
1262.63	13230.7
1266.27	11882.1
1269.92	10538.4
1273.56	9823.66
1277.2	9309.1
1280.84	9412.56
1284.47	9936.67
1288.11	10391.4
1291.74	10806.9
1295.38	11243.1
1299.01	11689.3
1302.64	12124.6
1306.27	12388.7
1309.89	12552.3
1313.52	12555.9
1317.14	12349.6
1320.76	11833.2
1324.38	10816.5
1328	9825.79
1331.62	8812.73
1335.23	7708.65
1338.85	6562.23
1342.46	5535.31
1346.07	5046.87
1349.68	4202.78
1353.29	3589.35
1356.89	2876.59
1360.49	2114.5
1364.1	1643.09
1367.7	922.22
1371.3	481.25
1374.9	359.896
1378.49	170.73
1382.09	5.021
1385.68	41.739
1389.27	40.785
1392.86	17.245
1396.45	45.816
1400.04	5.12
1403.62	34.669
1407.21	113.44
1410.79	21.02
1414.37	2.641
1417.95	147.819
1421.53	404.684
1425.1	673.193
1428.68	883.45
1432.25	905.682
1435.82	1019.73
1439.39	1097.42
1442.96	981.03
1446.53	889.166
1450.09	775.387
1453.66	745.861
1457.22	763.508
1460.78	667.441
1464.34	594.242
1467.89	571.403
1471.45	318.62
1475.01	415.264
1478.56	358.238
1482.11	102.592
1485.66	37.493
