Measurement: Raman, 514 nm, ccw, Raman Data Processed
Mineral: Titanite
Rruff sample: R050039
Ideal chemistry: CaTiSiO_5_
Locality: Kingman, Arizona, USA
Source: University of Arizona Mineral Museum
Description: Black fragment from a single crystal
Measured chemistry: (Ca_0.95_Y_0.05_)(Ti_0.85_Al_0.10_Fe^3+^_0.06_)Si_1.00_O_4_(O_0.93_F_0.07_)
Pin_id: L00539
Orientation: Laser parallel to c* (0 0 1). Fiducial mark perpendicular to laser is parallel to a [1 0 0]
Raman shift (cm-1)	intensity
99.023	0
103.206	39.938
107.387	126.994
111.566	402.289
115.744	233.125
119.919	419.527
124.092	76.805
128.263	47.336
132.432	456.941
136.599	935.809
140.764	1236.91
144.927	2227.05
149.088	3616.27
153.247	4558.72
157.404	5830.66
161.559	6809.53
165.711	7203.52
169.862	7281.24
174.011	7953.37
178.158	8645.14
182.303	9191.73
186.446	9677.93
190.587	10235.5
194.726	10396.7
198.862	11573
202.997	12155.1
207.13	13413.8
211.261	14109.4
215.39	14892.3
219.517	15612.5
223.642	16450.4
227.765	16675.9
231.886	15859
236.005	16349.6
240.122	16757.8
244.237	17093.6
248.35	18223
252.461	19629.8
256.57	19292.5
260.677	17753.7
264.782	15669.8
268.885	13901.6
272.986	11627.3
277.085	10361.1
281.182	9020.59
285.278	8844.12
289.371	8620.62
293.462	8789.24
297.552	9229.35
301.639	10190.5
305.724	10522.2
309.808	10704.1
313.889	11355.8
317.969	11717.1
322.046	11997.8
326.122	12187.9
330.196	12637.1
334.267	12425.5
338.337	11993
342.405	11110.9
346.471	10747.5
350.535	10100.3
354.597	9880.11
358.657	9553.36
362.715	9124.05
366.771	8468.48
370.825	7471.3
374.877	5802.56
378.928	3402.29
382.976	1480.55
387.023	167.318
391.067	828.533
395.11	1529.08
399.15	1675.67
403.189	1378.64
407.226	749.357
411.261	324.275
415.294	1663.99
419.325	3055.3
423.354	3684.97
427.381	3994.16
431.406	3972.94
435.43	3951.14
439.451	3938.63
443.471	4465.34
447.488	5231.2
451.504	6576.19
455.518	7730.28
459.53	9133.47
463.54	9955.73
467.548	10927.1
471.554	10127.5
475.558	8757.08
479.561	6815.8
483.561	4823.69
487.559	2980.8
491.556	1687.15
495.551	802.76
499.544	487.658
503.535	191.832
507.524	285.268
511.511	328.092
515.496	760.596
519.48	1343.25
523.461	2296.45
527.441	2950.39
531.418	3955.27
535.394	4810.94
539.368	5720.46
543.34	6323.88
547.311	6643.94
551.279	6510.06
555.245	6024.4
559.21	4688.88
563.173	4158.32
567.133	3859.51
571.092	4266.02
575.049	5570.89
579.005	7449.5
582.958	8988.98
586.909	10749.4
590.859	12200.6
594.807	13952.8
598.753	15746
602.697	16830.1
606.639	18345.1
610.579	19481.2
614.518	20098.2
618.454	20556.3
622.389	21625.5
626.322	21825.8
630.253	22117.9
634.182	22161.9
638.109	21848.1
642.035	21906.1
645.958	22275.7
649.88	21506.4
653.8	20928.4
657.718	20941.4
661.634	20012.4
665.549	19426.3
669.461	18609.1
673.372	18135.1
677.281	17366.4
681.188	16738.5
685.093	16392.6
688.997	15313.2
692.898	14797.9
696.798	14168.7
700.696	13716.6
704.592	13213
708.486	12382.4
712.378	11686.6
716.269	11096.5
720.158	10282.4
724.045	9863.2
727.93	8957.11
731.813	8582.2
735.694	7698.13
739.574	7444.87
743.452	6812.4
747.328	6380.69
751.202	5909.72
755.075	5469.46
758.945	4809.9
762.814	4161.03
766.681	4282.86
770.546	3625.37
774.409	3458.52
778.271	3216.38
782.131	2960.64
785.989	2830.25
789.845	2577.64
793.699	2479.55
797.552	1965.09
801.402	1640.3
805.251	1379.75
809.098	866.114
812.944	322.517
816.787	299.098
820.629	24.175
824.469	217.511
828.307	321.572
832.144	576.991
835.978	624.344
839.811	543.913
843.642	465.71
847.472	449.405
851.299	134.958
855.125	218.402
858.949	741.446
862.771	1234.14
866.591	2146.42
870.41	2988.18
874.227	4149.33
878.042	4759.79
881.855	5299.49
885.667	5648.39
889.476	5906.46
893.284	5823.68
897.09	5790.01
900.895	4915.44
904.698	4359.93
908.499	4044.32
912.298	3579.2
916.095	2805.66
919.891	2013.15
923.685	1178.42
927.477	680.677
931.267	170.744
935.056	115.696
938.843	124.853
942.628	111.835
946.411	18.595
950.193	377.473
953.973	695.261
957.751	1190.6
961.527	1585.91
965.302	2011.22
969.075	2435.48
972.846	2728.59
976.615	3118.32
980.383	3338.75
984.149	3260.22
987.913	3465.23
991.675	3637.06
995.436	3796.04
999.195	3973.79
1002.95	4070
1006.71	4245.44
1010.46	4550.49
1014.21	4543.1
1017.96	4344.56
1021.71	4044.86
1025.46	3744
1029.2	3301.98
1032.95	2848.8
1036.69	2454.47
1040.43	2078.99
1044.17	1840.36
1047.9	1604.59
1051.64	1312.68
1055.37	1167.64
1059.1	859.458
1062.83	692.102
1066.56	393.529
1070.29	506.669
1074.01	559.54
1077.73	703.386
1081.46	965.792
1085.17	1175.2
1088.89	1194.42
1092.61	1039.09
1096.32	851.358
1100.04	679.59
1103.75	380.79
1107.46	311.724
1111.16	266.656
1114.87	254.965
1118.57	140.5
1122.28	150.312
1125.98	42.549
1129.67	99.522
1133.37	153.947
1137.07	220.692
1140.76	230.759
1144.45	40.361
1148.14	76.658
1151.83	282.458
1155.52	477.712
1159.21	861.26
1162.89	1294.17
1166.57	1753.44
1170.25	2332.09
1173.93	2888.11
1177.61	3060.52
1181.28	3069.31
1184.96	2944.47
1188.63	2797.01
1192.3	2671.94
1195.97	2812.28
1199.64	2760.03
1203.3	2897.15
1206.97	3011.26
1210.63	2834.96
1214.29	2642.75
1217.95	2555.38
1221.6	2729.06
1225.26	2976.12
1228.91	3397.78
1232.57	3990.1
1236.21	4488.05
1239.86	4717.55
1243.51	4817.85
1247.16	4709.48
1250.8	4649.65
1254.44	4194.04
1258.08	3895.79
1261.72	3549
1265.36	3113.63
1268.99	3017.64
1272.63	2760.63
1276.26	2613.01
1279.89	2554.53
1283.52	2601.32
1287.15	2747.99
1290.77	2946.39
1294.4	3174.15
1298.02	3359.04
1301.64	3691.97
1305.26	3857.7
1308.88	4071.4
1312.49	4164.16
1316.11	4290.3
1319.72	4357.3
1323.33	4201.92
1326.94	4217.03
1330.55	3978.86
1334.15	3855.68
1337.76	3531.8
1341.36	3213.23
1344.96	2949.59
1348.56	2648.18
1352.16	2416.44
1355.75	2178.6
1359.35	1845.36
1362.94	1610.54
1366.53	1262.33
1370.12	1002.04
1373.71	721.646
1377.3	460.157
1380.88	315.263
1384.46	269.801
1388.05	88.376
1391.63	89.808
1395.2	108.706
1398.78	7.064
1402.36	26.803
1405.93	48.052
1409.5	21.361
1413.07	15.051
1416.64	32.801
1420.21	24.729
1423.78	11.163
1427.34	13.904
1430.9	143.56
1434.46	196.037
1438.02	225.703
1441.58	316.329
1445.13	303.86
1448.69	356.228
1452.24	328.624
1455.79	306.593
1459.34	322.85
1462.89	269.679
1466.44	147.102
1469.98	186.883
1473.53	128.863
1477.07	159.638
1480.61	90.882
1484.14	85.157
1487.68	122.492
1491.22	177.372
1494.75	145.695
1498.28	194.629
1501.81	145.45
1505.34	101.319
1508.87	96.498
1512.4	147.153
1515.92	24.362
1519.44	171.952
