Measurement: Raman, 514 nm, ccw, Raman Data Processed
Mineral: Titanite
Rruff sample: R040033
Ideal chemistry: CaTiSiO_5_
Locality: Brazil
Source: University of Arizona Mineral Museum
Description: Green flattened wedge-shaped single crystals
Measured chemistry: (Ca_0.97_Fe^3+^_0.03_)_Σ=1_(Ti_0.97_Al_0.03_)_Σ=1_Si_1.00_O_5_; Fe^3+^ assigned for charge balance
Pin_id: L00086
Orientation: Laser parallel to a [1 0 0]. Fiducial mark perpendicular to laser is parallel to b* (0 1 0)
Raman shift (cm-1)	intensity
51.466	0
55.666	144.932
59.863	79.999
64.059	66.61
68.253	99.541
72.445	532.319
76.635	1087.73
80.823	1501.69
85.009	1737.82
89.193	1788.64
93.375	1599.47
97.554	1215.57
101.732	1012.66
105.908	988.529
110.082	972.291
114.254	1060.75
118.424	1185.15
122.592	1299.72
126.758	1619.86
130.922	1954.09
135.083	2937.88
139.243	4788.64
143.401	8011.92
147.557	6532.86
151.711	6031.22
155.863	8613.04
160.013	11658.6
164.161	11418.2
168.308	8510.88
172.452	6106.53
176.594	4896.77
180.734	4478.22
184.872	4271.89
189.008	3956.8
193.143	4073.97
197.275	4494.34
201.405	4934.1
205.534	5449.09
209.66	5611.36
213.784	5776.22
217.907	6261
222.027	7056.45
226.146	8003.31
230.263	8905.87
234.377	9513.8
238.49	8252.23
242.601	8313.66
246.709	9686.24
250.816	11387.6
254.921	11816.5
259.024	10992.8
263.125	9437.28
267.224	7900.84
271.321	6886.34
275.416	6957.66
279.51	8302.73
283.601	11604.5
287.69	17020.9
291.778	19936.1
295.863	15921.5
299.947	10582.5
304.029	8587.92
308.108	9922.57
312.186	13876.4
316.262	18022.4
320.336	14541.6
324.408	9359.06
328.478	7119.7
332.546	5822.56
336.612	4945.65
340.677	4388.93
344.739	5282.42
348.799	7488.11
352.858	7561.01
356.915	4440.12
360.969	2277.46
365.022	1273.01
369.073	594.792
373.122	63.805
377.169	258.159
381.215	465.647
385.258	521.269
389.299	484.092
393.339	467.068
397.376	374.008
401.412	26.697
405.446	835.426
409.478	2739.63
413.508	6804.29
417.536	13322.4
421.562	19181
425.586	17689
429.609	10717.4
433.629	5601.26
437.648	2785.62
441.665	1036.59
445.68	210.383
449.693	193.979
453.704	141.265
457.713	918.765
461.721	2913.53
465.726	6100.97
469.73	7874
473.731	6804.57
477.731	5604.66
481.729	4979.27
485.725	4553.41
489.72	4272.11
493.712	3734.38
497.703	3243.24
501.691	2574.69
505.678	1998.75
509.663	1824.43
513.646	1845.74
517.627	1934.69
521.607	2154.29
525.584	2435.99
529.56	2904.48
533.534	3574.82
537.506	3869.4
541.476	3923.21
545.444	3407.48
549.41	2868.34
553.375	3099.31
557.337	4989.6
561.298	9129.8
565.257	14833.4
569.214	18401
573.17	18381.7
577.123	17693.4
581.075	18763.1
585.024	21205
588.972	25762.9
592.918	30391.3
596.863	36578
600.805	42897.1
604.746	47527.7
608.685	48139.6
612.621	45252.5
616.557	41244.1
620.49	35103
624.421	30785.9
628.351	25765.9
632.279	22039.4
636.205	19342.1
640.129	16531.2
644.051	14309.9
647.972	12508
651.89	11378.5
655.807	9952.19
659.722	8918
663.636	8152.84
667.547	7114.71
671.457	6395.6
675.365	5899.51
679.271	5159.42
683.175	4782.34
687.077	4150.27
690.978	3722.23
694.877	3362.57
698.774	3099.95
702.669	2642.29
706.562	2224.74
710.454	1858.16
714.344	1720.72
718.232	1499.9
722.118	1141.09
726.002	1122.16
729.885	881.111
733.766	707.923
737.645	537.58
741.522	321.016
745.397	172.371
749.271	110.463
753.143	133.531
757.013	200.095
760.881	317.396
764.748	275.512
768.613	211.141
772.476	127.524
776.337	50.683
780.196	30.477
784.054	168.153
787.91	263.876
791.764	441.935
795.616	668.725
799.467	901.471
803.316	1389.09
807.163	1985.87
811.008	2764.68
814.851	3624.87
818.693	4356.12
822.533	4869.81
826.371	5239.87
830.208	5609.3
834.042	5995.1
837.875	7104.28
841.706	9118.06
845.536	12367.3
849.363	17204.3
853.189	22571.5
857.013	27201.9
860.836	31847.3
864.656	39223.8
868.475	50930.3
872.292	56353.8
876.108	50886.3
879.922	44944.7
883.733	39583.1
887.544	32824.3
891.352	24155.5
895.159	16981.5
898.964	13132.8
902.767	12011.9
906.568	12359.7
910.368	12362.7
914.166	9944.25
917.962	6015.42
921.757	3025.16
925.55	1551.06
929.341	799.562
933.13	312.163
936.918	140.251
940.703	32.551
944.488	108.072
948.27	87.737
952.051	131.645
955.83	66.984
959.607	21.732
963.383	100.287
967.156	349.64
970.928	494.731
974.699	633.304
978.468	487.063
982.234	379.451
986	249.308
989.763	224.978
993.525	260.281
997.285	345.497
1001.04	391.505
1004.8	594.119
1008.55	691.724
1012.31	799.792
1016.06	822.335
1019.81	779.347
1023.56	885.823
1027.31	775.758
1031.05	691.148
1034.79	628.49
1038.53	562.283
1042.27	442.021
1046.01	262.201
1049.75	79.767
1053.48	21.399
1057.22	4.417
1060.95	33.186
1064.68	63.759
1068.4	21.089
1072.13	73.013
1075.86	271.634
1079.58	698.89
1083.3	1114.77
1087.02	1587.07
1090.74	1656.12
1094.45	1522.77
1098.17	898.4
1101.88	381.158
1105.59	168.897
1109.3	24.95
1113.01	17.648
1116.71	5.796
1120.42	83.636
1124.12	129.729
1127.82	58.289
1131.52	59.296
1135.22	0.442
1138.91	85.356
1142.61	99.46
1146.3	144.747
1149.99	219.057
1153.68	299.923
1157.37	644.384
1161.06	989.447
1164.74	1332.12
1168.42	1824.4
1172.1	2847.29
1175.78	4709.8
1179.46	5935.93
1183.14	5431.69
1186.81	3953.09
1190.48	2937.14
1194.15	2767.29
1197.83	2949.57
1201.49	2912.1
1205.16	2723.8
1208.82	3038.73
1212.49	3588.07
1216.15	3289.61
1219.81	2542.84
1223.46	2108.13
1227.12	1935.72
1230.78	2088.47
1234.43	2110.77
1238.08	2083.77
1241.73	2255.29
1245.38	2588.99
1249.03	2456.25
1252.67	2146.66
1256.31	1674.54
1259.95	1226.18
1263.6	976.296
1267.23	781.34
1270.87	619.669
1274.51	588.176
1278.14	465.181
1281.77	448.278
1285.4	479.938
1289.03	537.419
1292.66	613.559
1296.28	831.41
1299.91	966.964
1303.53	958.604
1307.15	1005.1
1310.77	925.261
1314.38	1004.1
1318	1028.59
1321.61	1053.83
1325.23	905.167
1328.84	718.333
1332.45	566.413
1336.06	436.405
1339.66	366.308
1343.27	300.161
1346.87	257.035
1350.47	195.031
1354.07	131.269
1357.67	84.834
1361.26	12.716
1364.86	74.769
1368.45	36.589
1372.04	16.442
1375.63	69.287
1379.22	54.456
1382.81	12.123
1386.39	13.888
1389.98	15.604
1393.56	58.069
1397.14	85.803
1400.72	84.737
1404.3	73.856
1407.87	80.27
1411.45	199.88
1415.02	223.585
1418.59	298.318
1422.16	345.118
1425.73	456.034
1429.29	545.098
1432.86	636.341
1436.42	701.796
1439.98	844.483
1443.54	926.16
1447.1	993.771
1450.66	1039.88
1454.21	1093.01
1457.77	986.324
1461.32	965.377
1464.87	856.002
1468.42	839.321
1471.96	663.215
1475.51	612.57
1479.06	492.229
1482.6	408.956
1486.14	306.469
1489.68	248.069
1493.22	119.665
1496.75	120.7
1500.29	122.727
1503.82	86.096
1507.35	16.803
1510.88	4.827
1514.41	32.141
1517.94	34.726
1521.46	8.68
1524.99	0
