Measurement: Raman, 514 nm, ccw, Raman Data Processed
Mineral: Titanite
Rruff sample: R050039
Ideal chemistry: CaTiSiO_5_
Locality: Kingman, Arizona, USA
Source: University of Arizona Mineral Museum
Description: Black fragment from a single crystal
Measured chemistry: (Ca_0.95_Y_0.05_)(Ti_0.85_Al_0.10_Fe^3+^_0.06_)Si_1.00_O_4_(O_0.93_F_0.07_)
Pin_id: L00126
Orientation: Laser parallel to a* (1 0 0). Fiducial mark perpendicular to laser is parallel to b [0 1 0]
Raman shift (cm-1)	intensity
72.233	0
76.418	83.825
80.602	156.482
84.784	458.201
88.964	719.009
93.142	1032.35
97.318	693.493
101.492	428.789
105.664	348.219
109.834	342.418
114.002	331.859
118.168	15.886
122.332	23.707
126.495	85.232
130.655	38.649
134.813	165.058
138.97	803.8
143.124	904.692
147.277	907.746
151.427	803.128
155.576	590.868
159.723	429.644
163.867	389.195
168.01	579.653
172.151	601.027
176.29	683.334
180.427	796.517
184.562	1050.34
188.696	1245.02
192.827	1480.74
196.956	2187.45
201.084	2475.02
205.209	2893.38
209.333	3212.58
213.454	3633.07
217.574	4195.47
221.692	4430.25
225.808	4447.34
229.922	4436.26
234.034	3937.21
238.144	3683.68
242.252	3929.46
246.359	4117.83
250.463	4297.76
254.566	4278.8
258.666	4260.81
262.765	3923.59
266.862	3736.57
270.957	3460.29
275.05	3224.84
279.141	2960.12
283.23	2856.09
287.317	2607.43
291.403	2540.33
295.486	2675.38
299.568	2913.28
303.647	3082.29
307.725	3605.73
311.801	3982.6
315.875	4393.85
319.947	4623.8
324.018	4374.02
328.086	4154.49
332.153	3825.19
336.217	3616.11
340.28	3187.27
344.341	3226.14
348.4	3112.48
352.457	3213.84
356.512	3137.39
360.566	3043.38
364.617	2993.06
368.667	2842.82
372.715	2761.43
376.761	2556.86
380.805	2619.48
384.847	2646.66
388.887	2747.18
392.926	2799.29
396.962	2845.15
400.997	2896
405.03	3016.77
409.061	3337.44
413.09	3728
417.117	4208.4
421.143	4188.65
425.166	3738.72
429.188	3118.6
433.208	2608.27
437.226	2057.74
441.242	1576.97
445.256	945.952
449.269	804.729
453.28	463.286
457.288	351.629
461.295	179.687
465.3	187.433
469.304	144.81
473.305	11.847
477.305	348.507
481.303	354.86
485.298	460.913
489.293	396.667
493.285	262.117
497.275	167.257
501.264	22.078
505.251	156.453
509.236	87.68
513.219	43.309
517.2	44.458
521.18	125.275
525.157	94.31
529.133	146.645
533.107	123.309
537.079	74.933
541.05	92.126
545.018	101.604
548.985	49.842
552.95	216.313
556.913	242.948
560.875	502.819
564.834	1112.37
568.792	2061.61
572.748	2770.54
576.702	2869.16
580.654	3157.49
584.605	3205.51
588.553	3283.24
592.5	3503.59
596.445	3617.85
600.389	3434.74
604.33	3561.36
608.27	3667.72
612.208	3703.81
616.144	3849.66
620.078	3735.26
624.011	3640.18
627.941	3903.66
631.87	3827.51
635.798	3733.99
639.723	3641.25
643.647	3689.1
647.568	3396.93
651.488	3504.58
655.407	3332.01
659.323	3187.1
663.238	3008.72
667.151	2861.72
671.062	2791.49
674.971	2556.25
678.879	2413.61
682.785	2080.87
686.689	2039.78
690.591	2161.16
694.491	2107.32
698.39	1692.17
702.287	1677.72
706.182	1401.73
710.076	1338.99
713.968	1267.43
717.857	1096.98
721.746	934.396
725.632	801.982
729.517	719.202
733.4	597.684
737.281	465.812
741.16	484.133
745.038	412.651
748.913	311.373
752.788	280.304
756.66	139.448
760.531	178.811
764.399	188.396
768.267	48.212
772.132	98.259
775.996	138.543
779.857	210.657
783.718	174.72
787.576	388.607
791.433	313.249
795.288	512.18
799.141	491.661
802.992	503.331
806.842	515.118
810.69	657.037
814.536	869.317
818.381	1002.2
822.223	1135.77
826.065	1330.27
829.904	1675.59
833.741	2021.61
837.577	2508.25
841.412	3115.53
845.244	3653.38
849.075	4531.65
852.904	5810.46
856.731	6699.89
860.556	8149.91
864.38	10220.5
868.202	12051.6
872.023	13732.8
875.842	15004.1
879.658	15755.5
883.474	16027
887.287	15708.7
891.099	14660.4
894.909	13082.2
898.718	10974.2
902.524	8636.17
906.329	6688.26
910.133	4750.44
913.934	3462.69
917.734	2275.01
921.532	1567.4
925.329	799.861
929.124	252.375
932.917	26.917
936.708	394.97
940.498	525.41
944.286	418.963
948.072	233.321
951.857	218.155
955.64	623.592
959.421	1149.1
963.201	1940.52
966.979	2894.43
970.755	3656.95
974.529	4101.32
978.302	4231.86
982.073	4134.81
985.843	4182.48
989.611	3668.03
993.377	3503.52
997.141	3268.94
1000.9	2834.28
1004.66	2689.54
1008.42	2404.72
1012.18	2469.8
1015.94	2574.78
1019.69	3019.66
1023.45	3364.42
1027.2	3679.07
1030.95	3983.61
1034.69	4318.03
1038.44	4652.35
1042.18	4746.54
1045.93	4410.62
1049.67	3894.59
1053.41	3678.44
1057.14	2932.18
1060.88	2665.79
1064.62	2429.29
1068.35	2212.68
1072.08	2275.95
1075.81	2569.11
1079.54	2852.16
1083.26	3052.55
1086.99	2895.74
1090.71	2767.96
1094.43	2155.03
1098.15	1243.32
1101.87	638.055
1105.59	403.031
1109.3	16.149
1113.01	155.753
1116.72	114.242
1120.43	179.459
1124.14	181.546
1127.85	84.634
1131.55	164.725
1135.26	308.902
1138.96	620.137
1142.66	1051.46
1146.36	1712.88
1150.05	2634.38
1153.75	3955.95
1157.44	5597.55
1161.13	7269.19
1164.82	9250.85
1168.51	11172.6
1172.2	12874.3
1175.88	14146
1179.57	14087.8
1183.25	13319.6
1186.93	12331.4
1190.61	11393.2
1194.28	10995.1
1197.96	10497
1201.63	10418.9
1205.31	9700.82
1208.98	9312.89
1212.64	8855.11
1216.31	8497.49
1219.98	8200.04
1223.64	8532.75
1227.31	8849.53
1230.97	9515.73
1234.62	10401.8
1238.28	10834.3
1241.94	11016.4
1245.59	10543.3
1249.25	9718.13
1252.9	9129.61
1256.55	7938.88
1260.2	7081.08
1263.84	6313.67
1267.49	5731.24
1271.13	5481.24
1274.77	5051.61
1278.41	4989.71
1282.05	5137.37
1285.69	4927.46
1289.32	5097.87
1292.96	5588.02
1296.59	5946.25
1300.22	6372.8
1303.85	6466.85
1307.48	6773.51
1311.1	6588.65
1314.72	6553.53
1318.35	6178.03
1321.97	5741.94
1325.59	5305.36
1329.21	4858.58
1332.82	4231.64
1336.44	3744.59
1340.05	3197.64
1343.66	2721.09
1347.27	2135.91
1350.88	1583.04
1354.49	1285.73
1358.09	898.896
1361.7	742.516
1365.3	460.899
1368.9	284.677
1372.5	152.043
1376.1	93.629
1379.69	99.784
1383.29	102.882
1386.88	77.823
1390.47	160.213
1394.06	134.411
1397.65	56.753
1401.23	144.531
1404.82	307.045
1408.4	654.436
1411.98	805.898
1415.56	966.615
1419.14	1288.74
1422.72	1502.27
1426.3	1566.76
1429.87	1782.14
1433.44	1947.81
1437.01	1973.39
1440.58	2014.55
1444.15	2014.49
1447.71	1949.36
1451.28	2008.1
1454.84	1750.11
1458.4	1642.57
1461.96	1261.48
1465.52	1024.19
1469.08	832.006
1472.64	616.874
1476.19	351.866
1479.74	107.146
1483.29	94.586
1486.84	28.515
1490.39	170.957
