Measurement: Raman, 514 nm, ccw, Raman Data Processed
Mineral: Titanite
Rruff sample: R040033
Ideal chemistry: CaTiSiO_5_
Locality: Brazil
Source: University of Arizona Mineral Museum
Description: Green flattened wedge-shaped single crystals
Measured chemistry: (Ca_0.97_Fe^3+^_0.03_)_Σ=1_(Ti_0.97_Al_0.03_)_Σ=1_Si_1.00_O_5_; Fe^3+^ assigned for charge balance
Pin_id: L00395
Orientation: Laser parallel to [-1 0 -1]. Fiducial mark perpendicular to laser is parallel to -b* (0 -1 0)
Raman shift (cm-1)	intensity
51.466	0
55.666	195.24
59.863	35.422
64.059	97.623
68.253	566.527
72.445	1864.59
76.635	3047.74
80.823	3557.43
85.009	3184.41
89.193	2669.83
93.375	1979.53
97.554	1125.38
101.732	607.787
105.908	517.866
110.082	993.386
114.254	1035.84
118.424	353.372
122.592	237.28
126.758	444.91
130.922	493.754
135.083	609.42
139.243	1034.71
143.401	2103.15
147.557	1495.94
151.711	1345.46
155.863	2078.01
160.013	3224.8
164.161	3905.95
168.308	4304.53
172.452	5022.21
176.594	5896.4
180.734	6655.64
184.872	6989.78
189.008	6531.83
193.143	6605.83
197.275	7412.78
201.405	7833.7
205.534	7684.16
209.66	7483.43
213.784	7252.23
217.907	7583.64
222.027	8245.98
226.146	8646.16
230.263	8617
234.377	7971.61
238.49	7624.44
242.601	8549.09
246.709	10339.2
250.816	11748.6
254.921	11334.1
259.024	9741.37
263.125	7533.4
267.224	5553.01
271.321	3908.1
275.416	2891.67
279.51	2806.4
283.601	3367.46
287.69	4696.37
291.778	5266.91
295.863	4607.41
299.947	5269.64
304.029	7846.8
308.108	13377.7
312.186	25731.5
316.262	37766
320.336	28213.3
324.408	16704.5
328.478	11818.4
332.546	9670.09
336.612	8408.55
340.677	6700.66
344.739	5386.41
348.799	4653.78
352.858	3717.77
356.915	2747.37
360.969	1958.6
365.022	1339.44
369.073	721.896
373.122	111.962
377.169	190.405
381.215	427.256
385.258	430.154
389.299	192.799
393.339	67.61
397.376	587.853
401.412	1582.03
405.446	3225.12
409.478	6788.1
413.508	13938.9
417.536	24764.6
421.562	31911.2
425.586	24308.5
429.609	12650.7
433.629	5946.64
437.648	2758.41
441.665	971.992
445.68	33.576
449.693	537.905
453.704	643.662
457.713	272.175
461.721	473.805
465.726	1330.59
469.73	1734.31
473.731	1579.06
477.731	1975.92
481.729	2526.81
485.725	3064.63
489.72	3433.3
493.712	3438.79
497.703	3196.1
501.691	2750.24
505.678	2486.22
509.663	2521.04
513.646	2829.71
517.627	3049.22
521.607	3429.58
525.584	4069.8
529.56	5201.3
533.534	6652.8
537.506	7977.45
541.476	8719.83
545.444	8845.91
549.41	8414.24
553.375	7061.37
557.337	5762.87
561.298	4815.35
565.257	4653.8
569.214	5468.22
573.17	6390.78
577.123	7862.98
581.075	10465.3
585.024	13873.6
588.972	19014.8
592.918	24449
596.863	31729
600.805	39042.6
604.746	45419.7
608.685	47484.9
612.621	45192.9
616.557	41445.8
620.49	35896.1
624.421	31477.5
628.351	26522.1
632.279	22893.5
636.205	19951.4
640.129	17088.1
644.051	14659.1
647.972	12856.6
651.89	11811.4
655.807	10347.4
659.722	9492.42
663.636	8605.48
667.547	7615.5
671.457	6815.45
675.365	6312.3
679.271	5615.04
683.175	5191.67
687.077	4471.17
690.978	4074.53
694.877	3734.89
698.774	3436.89
702.669	2867.72
706.562	2687.18
710.454	2219.76
714.344	2044.14
718.232	1966.3
722.118	1636.2
726.002	1415.84
729.885	1302.2
733.766	1061.26
737.645	765.013
741.522	564.444
745.397	304.566
749.271	176.405
753.143	39.965
757.013	16.802
760.881	100.965
764.748	155.142
768.613	90.744
772.476	52.871
776.337	4.609
780.196	89.568
784.054	102.145
787.91	118.813
791.764	74.534
795.616	16.712
799.467	131.664
803.316	326.82
807.163	476.294
811.008	916.278
814.851	1388.23
818.693	1936.05
822.533	2655.86
826.371	3387.83
830.208	4103.82
834.042	4838.33
837.875	5793.81
841.706	7052.41
845.536	8338.11
849.363	9807.89
853.189	11118.7
857.013	12517.6
860.836	14368.4
864.656	17419.2
868.475	21344.8
872.292	20127.4
876.108	13541.8
879.922	8655.03
883.733	5762.12
887.544	4170.02
891.352	3075.81
895.159	2834.04
898.964	3459.03
902.767	5076.94
906.568	7934.77
910.368	10017.7
914.166	9201.14
917.962	5789.33
921.757	3079.6
925.55	1649.21
929.341	881.462
933.13	352.181
936.918	229.953
940.703	57.646
944.488	70.959
948.27	119.459
952.051	141.149
955.83	27.034
959.607	15.522
963.383	101.084
967.156	52.435
970.928	182.815
974.699	282.649
978.468	365.987
982.234	480.525
986	470.047
989.763	617.346
993.525	635.131
997.285	702.904
1001.04	649.945
1004.8	749.625
1008.55	922.834
1012.31	1031.74
1016.06	1101.15
1019.81	1126.85
1023.56	1043.82
1027.31	815.48
1031.05	587.903
1034.79	429.011
1038.53	326.494
1042.27	265.344
1046.01	161.532
1049.75	42.99
1053.48	75.625
1057.22	38.435
1060.95	83.338
1064.68	57.459
1068.4	49.922
1072.13	118.757
1075.86	120.051
1079.58	201.803
1083.3	236.94
1087.02	252.875
1090.74	298.046
1094.45	238.884
1098.17	135.458
1101.88	60.49
1105.59	30.703
1109.3	9.322
1113.01	15.044
1116.71	10.632
1120.42	71.12
1124.12	101.01
1127.82	21.038
1131.52	44.26
1135.22	78.1
1138.91	4.727
1142.61	71.119
1146.3	91.974
1149.99	65.162
1153.68	96.817
1157.37	132.976
1161.06	206.659
1164.74	233.895
1168.42	324.698
1172.1	513.078
1175.78	830.039
1179.46	1057.59
1183.14	928.736
1186.81	757.444
1190.48	527.224
1194.15	544.585
1197.83	553.027
1201.49	587.948
1205.16	465.634
1208.82	448.666
1212.49	430.215
1216.15	526.185
1219.81	433.032
1223.46	369.482
1227.12	473.675
1230.78	497.423
1234.43	541.161
1238.08	563.251
1241.73	640.032
1245.38	683.611
1249.03	698.106
1252.67	606.587
1256.31	375.425
1259.95	282.545
1263.6	302.63
1267.23	148.368
1270.87	158.824
1274.51	103.207
1278.14	123.132
1281.77	32.504
1285.4	89.471
1289.03	82.463
1292.66	176.298
1296.28	299.363
1299.91	324.258
1303.53	217.327
1307.15	312.992
1310.77	183.117
1314.38	337.106
1318	222.896
1321.61	279.538
1325.23	332.03
1328.84	169.348
1332.45	142.534
1336.06	111.594
1339.66	30.548
1343.27	41.431
1346.87	12.212
1350.47	70.148
1354.07	46.086
1357.67	5.058
1361.26	27.407
1364.86	50.587
1368.45	39.591
1372.04	17.368
1375.63	50.762
1379.22	15.417
1382.81	42.888
1386.39	0.904
1389.98	57.902
1393.56	61.988
1397.14	33.94
1400.72	53.297
1404.3	11.08
1407.87	19.102
1411.45	11.306
1415.02	55.086
1418.59	141.637
1422.16	63.197
1425.73	59.79
1429.29	84.443
1432.86	90.012
1436.42	216.533
1439.98	208.423
1443.54	169.76
1447.1	252.849
1450.66	268.558
1454.21	244.332
1457.77	252.426
1461.32	201.977
1464.87	113.45
1468.42	119.491
1471.96	138.975
1475.51	167.614
1479.06	103.469
1482.6	126.794
1486.14	87.401
1489.68	101.757
1493.22	136.831
1496.75	84.201
1500.29	3.066
1503.82	37.225
1507.35	31.395
1510.88	77.442
1514.41	16.357
1517.94	2.369
1521.46	0
