Measurement: Raman, 514 nm, ccw, Raman Data Processed
Mineral: Titanite
Rruff sample: R040033
Ideal chemistry: CaTiSiO_5_
Locality: Brazil
Source: University of Arizona Mineral Museum
Description: Green flattened wedge-shaped single crystals
Measured chemistry: (Ca_0.97_Fe^3+^_0.03_)_Σ=1_(Ti_0.97_Al_0.03_)_Σ=1_Si_1.00_O_5_; Fe^3+^ assigned for charge balance
Pin_id: L00086
Orientation: Laser parallel to a [1 0 0]. Fiducial mark perpendicular to laser is parallel to b* (0 1 0)
Raman shift (cm-1)	intensity
51.466	0
55.666	169.808
59.863	46.3
64.059	22.673
68.253	278.875
72.445	984.193
76.635	1886.87
80.823	2397.53
85.009	2397.58
89.193	2253.31
93.375	1730.6
97.554	1142.37
101.732	727.182
105.908	613.361
110.082	458.844
114.254	461.419
118.424	425.041
122.592	485.943
126.758	711.229
130.922	1007.19
135.083	2607.31
139.243	7213.9
143.401	11613.1
147.557	6152.71
151.711	2758.12
155.863	2982.64
160.013	3917.43
164.161	4069.57
168.308	3994.99
172.452	4205.04
176.594	4808.05
180.734	5249.95
184.872	5563.03
189.008	5540.26
193.143	5702.67
197.275	6460.3
201.405	7287.13
205.534	7325.15
209.66	7064.35
213.784	6938.7
217.907	7463.31
222.027	8502.17
226.146	10171.5
230.263	12703.9
234.377	13031.7
238.49	9401.49
242.601	8481.68
246.709	9588.95
250.816	10736
254.921	10647.6
259.024	9334.62
263.125	7466.78
267.224	5724.97
271.321	4309.08
275.416	3705.01
279.51	3826.68
283.601	5019.98
287.69	7329.19
291.778	8659.83
295.863	8296.29
299.947	9230.39
304.029	11467.3
308.108	14744.3
312.186	21997.4
316.262	31478.5
320.336	28276.7
324.408	19637.9
328.478	15634.2
332.546	13305.4
336.612	11444.5
340.677	11106.4
344.739	13899
348.799	19004.3
352.858	17215.2
356.915	9544.75
360.969	5087.94
365.022	2889.75
369.073	1566.18
373.122	586.22
377.169	86.871
381.215	99.01
385.258	102.482
389.299	209.773
393.339	409.204
397.376	588.696
401.412	1307.19
405.446	2397.64
409.478	5036.01
413.508	10023.3
417.536	18018.4
421.562	23933.4
425.586	21072.2
429.609	12229.8
433.629	6029.14
437.648	2858.3
441.665	864.277
445.68	92.753
449.693	746.716
453.704	962.203
457.713	726.156
461.721	225.816
465.726	519.75
469.73	1058.93
473.731	1152.8
477.731	1705.37
481.729	2327.62
485.725	2860.58
489.72	3338.25
493.712	3467.64
497.703	3166.75
501.691	2650.59
505.678	2267.15
509.663	2181.43
513.646	2422.44
517.627	2764.19
521.607	2988.66
525.584	3423.88
529.56	4700.83
533.534	5849.52
537.506	7052.79
541.476	7746.02
545.444	7834.49
549.41	7476.17
553.375	6424.63
557.337	5553.85
561.298	5503.81
565.257	6349.53
569.214	7589.99
573.17	8431.19
577.123	9619.13
581.075	11994.8
585.024	15124.2
588.972	20085.3
592.918	25437.2
596.863	32213.9
600.805	38937.1
604.746	44638
608.685	46319.6
612.621	43932.9
616.557	40122.5
620.49	34678
624.421	30462.5
628.351	25408.5
632.279	22126.5
636.205	18733.5
640.129	16347.7
644.051	14131.4
647.972	12737.8
651.89	11361.5
655.807	10273
659.722	9117.87
663.636	8156.36
667.547	7091.73
671.457	6413.95
675.365	5962.03
679.271	5382.95
683.175	5000.72
687.077	4307.32
690.978	3992.76
694.877	3473.01
698.774	3273.29
702.669	2674.71
706.562	2418.04
710.454	2084.16
714.344	1879.06
718.232	1746.72
722.118	1428.14
726.002	1295.3
729.885	1071.19
733.766	790.802
737.645	659.118
741.522	378.129
745.397	218.823
749.271	8.812
753.143	3.849
757.013	132.454
760.881	289.029
764.748	358.864
768.613	207.855
772.476	134.801
776.337	32.156
780.196	48.771
784.054	167.334
787.91	403.227
791.764	751.234
795.616	1034.63
799.467	1632.99
803.316	2528.82
807.163	3384
811.008	4778.36
814.851	6171.85
818.693	7281.78
822.533	7963.08
826.371	8287.72
830.208	8889.77
834.042	9799.17
837.875	11987
841.706	15500.1
845.536	20855.5
849.363	28331.2
853.189	34761
857.013	37043.9
860.836	35101.9
864.656	33607.9
868.475	35986
872.292	35192
876.108	28752.9
879.922	23807.9
883.733	21104.7
887.544	18490.5
891.352	14064.2
895.159	9971.71
898.964	8073.12
902.767	8012.98
906.568	9458.13
910.368	10938.9
914.166	9836.83
917.962	6414.67
921.757	3324.08
925.55	1650.36
929.341	743.344
933.13	262.868
936.918	140.05
940.703	27.453
944.488	221.362
948.27	273.25
952.051	149.176
955.83	44.196
959.607	332.153
963.383	607.78
967.156	919.67
970.928	1358.21
974.699	1639.17
978.468	1477.68
982.234	1342.52
986	1219.04
989.763	1207.48
993.525	1220.28
997.285	1372.35
1001.04	1527.91
1004.8	1594.79
1008.55	1813.53
1012.31	1894.82
1016.06	2027.54
1019.81	2255.69
1023.56	2527.26
1027.31	2667.25
1031.05	2656.66
1034.79	2567.48
1038.53	2550.7
1042.27	2207.34
1046.01	1691.38
1049.75	1258.82
1053.48	927.665
1057.22	726.951
1060.95	688.803
1064.68	514.46
1068.4	464.902
1072.13	430.13
1075.86	624.088
1079.58	974.677
1083.3	1535.19
1087.02	1884.82
1090.74	1928.03
1094.45	1716
1098.17	910.51
1101.88	433.123
1105.59	61.291
1109.3	103.091
1113.01	15.063
1116.71	14.094
1120.42	22.895
1124.12	86.589
1127.82	38.645
1131.52	24.261
1135.22	27.608
1138.91	1.666
1142.61	31.854
1146.3	22.846
1149.99	145.942
1153.68	188.512
1157.37	652.629
1161.06	1119.37
1164.74	1651.72
1168.42	2330.72
1172.1	4043.34
1175.78	6842.61
1179.46	8852.51
1183.14	7924.06
1186.81	5468.27
1190.48	4199.14
1194.15	4166.68
1197.83	4476.9
1201.49	4231.8
1205.16	3885.39
1208.82	4320.68
1212.49	4880.27
1216.15	4663.12
1219.81	3894.02
1223.46	3578.89
1227.12	3676.02
1230.78	3964.07
1234.43	4165.72
1238.08	4336.32
1241.73	4792.94
1245.38	5376.02
1249.03	5336.54
1252.67	4653.87
1256.31	3476.34
1259.95	2731.19
1263.6	2350.19
1267.23	1990.35
1270.87	1701.54
1274.51	1465
1278.14	1330.75
1281.77	1288.49
1285.4	1321.33
1289.03	1466.95
1292.66	1759.35
1296.28	2083.89
1299.91	2466.58
1303.53	2585.32
1307.15	2564
1310.77	2354.57
1314.38	2347.43
1318	2511.92
1321.61	2448.47
1325.23	2386.9
1328.84	1820.24
1332.45	1467.53
1336.06	1053.75
1339.66	941.917
1343.27	690.011
1346.87	681.021
1350.47	561.945
1354.07	587.827
1357.67	417.715
1361.26	176.669
1364.86	146.579
1368.45	96.899
1372.04	0.283
1375.63	3.748
1379.22	18.486
1382.81	26.568
1386.39	57.245
1389.98	48.445
1393.56	50.855
1397.14	18.746
1400.72	36.063
1404.3	11.509
1407.87	31.902
1411.45	41.738
1415.02	76.393
1418.59	259.354
1422.16	245.351
1425.73	280.433
1429.29	394.644
1432.86	516.008
1436.42	645.556
1439.98	725.319
1443.54	898.334
1447.1	977.559
1450.66	1032.14
1454.21	1066.51
1457.77	1062.05
1461.32	927.162
1464.87	840.112
1468.42	714.77
1471.96	679.331
1475.51	566.644
1479.06	451.324
1482.6	428.164
1486.14	230.848
1489.68	203.317
1493.22	136.217
1496.75	130.396
1500.29	71.238
1503.82	153.705
1507.35	207.618
1510.88	125.516
1514.41	12.792
1517.94	151.542
1521.46	26.568
1524.99	0
