Measurement: Raman, 514 nm, ccw, Raman Data Processed
Mineral: Titanite
Rruff sample: R040033
Ideal chemistry: CaTiSiO_5_
Locality: Brazil
Source: University of Arizona Mineral Museum
Description: Green flattened wedge-shaped single crystals
Measured chemistry: (Ca_0.97_Fe^3+^_0.03_)_Σ=1_(Ti_0.97_Al_0.03_)_Σ=1_Si_1.00_O_5_; Fe^3+^ assigned for charge balance
Pin_id: L00395
Orientation: Laser parallel to [-1 0 -1]. Fiducial mark perpendicular to laser is parallel to -b* (0 -1 0)
Raman shift (cm-1)	intensity
51.466	0
55.666	263.441
59.863	108.403
64.059	103.797
68.253	80.766
72.445	823.257
76.635	1560.21
80.823	2081.56
85.009	2075.92
89.193	2061.96
93.375	1985.73
97.554	1869.99
101.732	2062.81
105.908	2235.98
110.082	2511.02
114.254	2557.25
118.424	2653.77
122.592	3173.13
126.758	4027.22
130.922	4494.13
135.083	4721
139.243	5389.59
143.401	6091.38
147.557	5612.79
151.711	6681.62
155.863	10928.5
160.013	15681.3
164.161	15577.5
168.308	12941.4
172.452	12043.2
176.594	12403
180.734	13555.9
184.872	13754
189.008	13141.3
193.143	13343.8
197.275	14033.3
201.405	15082
205.534	16962.9
209.66	17155.9
213.784	16427.1
217.907	16507.8
222.027	17444.2
226.146	18073.9
230.263	18603.6
234.377	18644.4
238.49	19521.1
242.601	22559.3
246.709	27675.7
250.816	32218.2
254.921	33186.7
259.024	29130.6
263.125	22179
267.224	16593.8
271.321	13351.8
275.416	12210.7
279.51	12102.4
283.601	12815.7
287.69	13908.5
291.778	11847.7
295.863	9231.17
299.947	10340.9
304.029	11841.8
308.108	11966.8
312.186	13009.8
316.262	14364.4
320.336	12864.7
324.408	11838.5
328.478	13305
332.546	14326.1
336.612	14034.9
340.677	11608.3
344.739	9474.27
348.799	7935.92
352.858	6885.19
356.915	5976.08
360.969	5216.58
365.022	4640.68
369.073	3923.37
373.122	3095.66
377.169	1831.53
381.215	590.065
385.258	114.827
389.299	255.406
393.339	861.136
397.376	1298.79
401.412	1425.4
405.446	1224.64
409.478	494.617
413.508	932.581
417.536	3607.51
421.562	6349.29
425.586	6030.91
429.609	4106.35
433.629	2991.59
437.648	2560.62
441.665	2281.43
445.68	2436
449.693	2991.35
453.704	4365.5
457.713	7470.48
461.721	12425.4
465.726	16707.2
469.73	13935
473.731	7283.06
477.731	3253.29
481.729	1646.79
485.725	1228.63
489.72	1348.81
493.712	1523.29
497.703	1705.05
501.691	1712.92
505.678	1939.72
509.663	2548.34
513.646	3130.83
517.627	3842.22
521.607	4820.48
525.584	5916.65
529.56	8027.65
533.534	10421.4
537.506	12582
541.476	14321.4
545.444	14360.4
549.41	13835.1
553.375	11523.8
557.337	8920.52
561.298	6681.76
565.257	4521.95
569.214	3883.6
573.17	4773.92
577.123	7010.52
581.075	10285.8
585.024	14493.3
588.972	20062
592.918	26543.9
596.863	34539.1
600.805	42945.4
604.746	50230.1
608.685	52490.3
612.621	50015.6
616.557	45763.3
620.49	39604.2
624.421	34687.8
628.351	29313.4
632.279	25034.6
636.205	21588.5
640.129	18684.5
644.051	16142.5
647.972	14329.2
651.89	13046.9
655.807	11449.4
659.722	10293.3
663.636	9473.1
667.547	8246.49
671.457	7493.33
675.365	6756.4
679.271	6149.14
683.175	5658.37
687.077	4884.49
690.978	4524.12
694.877	4008.76
698.774	3650.01
702.669	3105.85
706.562	2874.62
710.454	2486.24
714.344	2268.83
718.232	2045.15
722.118	1657.18
726.002	1559.15
729.885	1344.35
733.766	1042.96
737.645	831.98
741.522	681.388
745.397	510.154
749.271	314.248
753.143	222.64
757.013	142.307
760.881	12.796
764.748	75.743
768.613	59.651
772.476	86.255
776.337	91.922
780.196	155.934
784.054	182.621
787.91	154.848
791.764	193.161
795.616	208.61
799.467	178.138
803.316	132.996
807.163	163.42
811.008	27.508
814.851	41.28
818.693	110.34
822.533	72.38
826.371	43.892
830.208	63.385
834.042	73.337
837.875	108.754
841.706	172.731
845.536	390.309
849.363	505.493
853.189	714.268
857.013	816.613
860.836	955.508
864.656	1203.91
868.475	1683.79
872.292	1954.08
876.108	1958.71
879.922	2148.65
883.733	2164.76
887.544	1786.79
891.352	1170.69
895.159	692.958
898.964	600.468
902.767	785.811
906.568	1139.29
910.368	1646.14
914.166	1620.51
917.962	1116.46
921.757	621.177
925.55	356.223
929.341	239.5
933.13	142.576
936.918	78.758
940.703	93.11
944.488	93.378
948.27	88.574
952.051	135.256
955.83	151.927
959.607	197.972
963.383	180.905
967.156	221.214
970.928	272.688
974.699	253.074
978.468	367.085
982.234	395.617
986	393.549
989.763	421.167
993.525	453.629
997.285	551.948
1001.04	548.498
1004.8	676.43
1008.55	803.605
1012.31	946.543
1016.06	887.973
1019.81	813.357
1023.56	752.007
1027.31	486.99
1031.05	270.313
1034.79	188.969
1038.53	162.931
1042.27	133.18
1046.01	101.718
1049.75	98.549
1053.48	90.698
1057.22	129.163
1060.95	144.958
1064.68	173.12
1068.4	222.705
1072.13	185.782
1075.86	209.343
1079.58	173.284
1083.3	159.449
1087.02	151.047
1090.74	62.41
1094.45	43.374
1098.17	38.363
1101.88	82.247
1105.59	22.272
1109.3	8.891
1113.01	2.531
1116.71	30.064
1120.42	32.422
1124.12	44.317
1127.82	30.763
1131.52	1.207
1135.22	24.079
1138.91	29.229
1142.61	51.156
1146.3	53.921
1149.99	56.461
1153.68	82.796
1157.37	84.873
1161.06	90.858
1164.74	114.419
1168.42	143.627
1172.1	140.179
1175.78	182.594
1179.46	234.669
1183.14	196.279
1186.81	173.321
1190.48	135.55
1194.15	145.498
1197.83	108.783
1201.49	173.776
1205.16	116.552
1208.82	135.241
1212.49	86.001
1216.15	100.587
1219.81	93.986
1223.46	61.581
1227.12	56.424
1230.78	76.902
1234.43	76.081
1238.08	90.755
1241.73	101.432
1245.38	66.755
1249.03	86.758
1252.67	72.079
1256.31	8.31
1259.95	3.868
1263.6	23.973
1267.23	10.037
1270.87	5.794
1274.51	27.415
1278.14	18.588
1281.77	14.488
1285.4	9.342
1289.03	1.14
1292.66	20.629
1296.28	0.76
1299.91	9.799
1303.53	21.247
1307.15	63.155
1310.77	7.163
1314.38	62.759
1318	19.613
1321.61	0.617
1325.23	75.031
1328.84	37.582
1332.45	17.104
1336.06	3.619
1339.66	36.111
1343.27	52.588
1346.87	22.046
1350.47	35.585
1354.07	24.029
1357.67	18.531
1361.26	9.96
1364.86	4.38
1368.45	6.734
1372.04	17.034
1375.63	23.343
1379.22	16.596
1382.81	45.62
1386.39	20.892
1389.98	27.713
1393.56	36.589
1397.14	8.339
1400.72	1.665
1404.3	40.23
1407.87	20.681
1411.45	49.554
1415.02	5.124
1418.59	92.466
1422.16	52.276
1425.73	61.898
1429.29	79.342
1432.86	51.618
1436.42	113.377
1439.98	92.741
1443.54	80.863
1447.1	91.564
1450.66	121.591
1454.21	123.417
1457.77	123.79
1461.32	100.029
1464.87	62.125
1468.42	78.835
1471.96	82.775
1475.51	47.171
1479.06	59.3
1482.6	46.326
1486.14	34.127
1489.68	80.257
1493.22	35.378
1496.75	23.169
1500.29	42.526
1503.82	71.134
1507.35	43.632
1510.88	72.319
1514.41	4.335
1517.94	34.171
1521.46	10.864
