Measurement: Raman, 514 nm, ccw, Raman Data Processed
Mineral: Titanite
Rruff sample: R050114
Ideal chemistry: CaTiSiO_5_
Locality: Isthak Valley Iskardu, Northern Areas Gilgit, Pakistan
Source: Syed Shah
Description: Yellowish-brown fragment
Measured chemistry: (Ca_0.99_Na_0.01_)(Ti_0.96_Al_0.03_Fe^3+^_0.01_)Si_1.00_O_4_(O_0.95_F_0.05_)
Pin_id: L00350
Orientation: Laser parallel to (1 0 1). Fiducial mark perpendicular to laser is parallel to b [0 1 0]
Raman shift (cm-1)	intensity
138.97	0
143.124	193.424
147.277	101.771
151.427	714.381
155.576	3961.43
159.723	11285.6
163.867	16795
168.01	13324.9
172.151	8433.5
176.29	7236.78
180.427	7801.92
184.562	8128.23
188.696	8104.21
192.827	8703.6
196.956	10162.5
201.084	11719.4
205.209	15380.7
209.333	17761.2
213.454	17589.6
217.574	18115.6
221.692	19902.1
225.808	21062.6
229.922	22211.6
234.034	22942.7
238.144	22547.9
242.252	23808.3
246.359	28464.6
250.463	34127.1
254.566	35786.3
258.666	32592.1
262.765	24576.3
266.862	17380.4
270.957	13299.9
275.05	11191.1
279.141	10473.1
283.23	10827.7
287.317	10780.6
291.403	10011.6
295.486	6980.02
299.568	7735.92
303.647	9985.1
307.725	10300.6
311.801	10914.8
315.875	12316.6
319.947	12469.2
324.018	11827.9
328.086	13240.9
332.153	15476.9
336.217	16094.8
340.28	13873.9
344.341	11343.2
348.4	8922.25
352.457	7370.63
356.512	6558.12
360.566	6374.55
364.617	5999.78
368.667	5243.33
372.715	4053.92
376.761	2821.09
380.805	1344.08
384.847	114.947
388.887	481.053
392.926	889.991
396.962	1369.95
400.997	1828.15
405.03	1738.41
409.061	1354.52
413.09	355.486
417.117	1539.95
421.143	4469.92
425.166	7546.34
429.188	7416.11
433.208	5663.38
437.226	4825.62
441.242	5048.63
445.256	5480.16
449.269	6390.92
453.28	7980.93
457.288	11210.2
461.295	16778.9
465.3	24146.9
469.304	28154.3
473.305	22080.9
477.305	13206.5
481.303	6930.96
485.298	4073.21
489.293	3241.13
493.285	3376.69
497.275	3856.9
501.264	4083.85
505.251	4580.66
509.236	5146.39
513.219	6191.07
517.2	7324.73
521.18	8647.32
525.157	10108.9
529.133	12619.7
533.107	15759.8
537.079	19159.2
541.05	21353.4
545.018	22971.6
548.985	23521.8
552.95	21784.4
556.913	17983.2
560.875	13997.1
564.834	10645.5
568.792	8028.81
572.748	7493.04
576.702	9667.9
580.654	13900.4
584.605	19973.7
588.553	26946.8
592.5	34490.1
596.445	42643.6
600.389	49387.5
604.33	54571.9
608.27	55536.8
612.208	50922.1
616.144	45348
620.078	40005.6
624.011	34735.1
627.941	30456.2
631.87	25958.6
635.798	22573.6
639.723	19860.5
643.647	18036
647.568	15642.7
651.488	13802.7
655.407	12315.9
659.323	11192.3
663.238	10484.8
667.151	9400.76
671.062	8229.17
674.971	7561.25
678.879	6898.27
682.785	6416.16
686.689	5673.54
690.591	5212.3
694.491	4585.68
698.39	4328.22
702.287	3983.77
706.182	3527.32
710.076	3014.97
713.968	2694.61
717.857	2502.26
721.746	2220.38
725.632	1936.31
729.517	1677.63
733.4	1364.8
737.281	1273.36
741.16	1211.2
745.038	1020.29
748.913	715.617
752.788	535.172
756.66	373.936
760.531	350.889
764.399	240.009
768.267	134.27
772.132	37.356
775.996	55.908
779.857	36.984
783.718	31.727
787.576	85.991
791.433	107.932
795.288	116.64
799.141	80.466
802.992	36.292
806.842	39.005
810.69	130.078
814.536	172.896
818.381	136.104
822.223	140.19
826.065	94.588
829.904	108.166
833.741	150.94
837.577	177.127
841.412	183.981
845.244	127.612
849.075	98.959
852.904	78.986
856.731	45.669
860.556	16.84
864.38	112.685
868.202	252.097
872.023	504.609
875.842	763.281
879.658	1043.07
883.474	1418.9
887.287	1602.72
891.099	1450.52
894.909	1109.28
898.718	798.08
902.524	910.552
906.329	1271.43
910.133	2059.67
913.934	2694.16
917.734	2341.48
921.532	1533.56
925.329	1020.97
929.124	700.021
932.917	586.402
936.708	515.041
940.498	436.653
944.286	386.947
948.072	430.862
951.857	431.166
955.64	572.931
959.421	623.784
963.201	702.647
966.979	771.261
970.755	829.739
974.529	879.011
978.302	954.608
982.073	944.672
985.843	950.984
989.611	925.656
993.377	866.642
997.141	856.287
1000.9	864.036
1004.66	906.089
1008.42	969.161
1012.18	1126.9
1015.94	1085.03
1019.69	1130.64
1023.45	1100.37
1027.2	997.534
1030.95	815.32
1034.69	682.336
1038.44	597.593
1042.18	517.107
1045.93	415.889
1049.67	346.952
1053.41	322.298
1057.14	268.927
1060.88	236.503
1064.62	209.043
1068.35	211.548
1072.08	200.376
1075.81	213.547
1079.54	252.429
1083.26	267.377
1086.99	288.561
1090.71	344.571
1094.43	300.639
1098.15	293.254
1101.87	264.102
1105.59	209.288
1109.3	225.022
1113.01	184.542
1116.72	153.968
1120.43	106.705
1124.14	75.989
1127.85	28.372
1131.55	45.799
1135.26	33.317
1138.96	30.042
1142.66	18.101
1146.36	1.511
1150.05	7.18
1153.75	28.202
1157.44	8.521
1161.13	115.039
1164.82	190.654
1168.51	294.273
1172.2	441.761
1175.88	707.08
1179.57	918.223
1183.25	893.201
1186.93	677.022
1190.61	538.696
1194.28	485.206
1197.96	539.255
1201.63	546.635
1205.31	460.304
1208.98	412.505
1212.64	419.295
1216.31	396.195
1219.98	352.069
1223.64	358.059
1227.31	374.274
1230.97	449.872
1234.62	515.375
1238.28	555.659
1241.94	524.449
1245.59	572.026
1249.25	582.664
1252.9	534.028
1256.55	457.29
1260.2	394.929
1263.84	327.616
1267.49	264.378
1271.13	260.727
1274.77	248.517
1278.41	244.219
1282.05	253.149
1285.69	270.203
1289.32	311.936
1292.96	388.721
1296.59	438.881
1300.22	507.359
1303.85	548.935
1307.48	563.239
1311.1	566.425
1314.72	529.647
1318.35	558.636
1321.97	544.342
1325.59	495.864
1329.21	427.28
1332.82	383.603
1336.44	363.844
1340.05	352.002
1343.66	392.161
1347.27	354.217
1350.88	365.367
1354.49	340.912
1358.09	292.21
1361.7	247.46
1365.3	197.329
1368.9	122.897
1372.5	82.074
1376.1	50.716
1379.69	27.721
1383.29	8.279
1386.88	12.283
1390.47	13.036
1394.06	6.004
1397.65	20.941
1401.23	24.094
1404.82	10.948
1408.4	8.882
1411.98	5.423
1415.56	28.655
1419.14	40.189
1422.72	51.559
1426.3	71.948
1429.87	103.376
1433.44	135.862
1437.01	169.42
1440.58	194.035
1444.15	205.734
1447.71	241.584
1451.28	245.161
1454.84	246.591
1458.4	241.524
1461.96	216.737
1465.52	168.641
1469.08	149.475
1472.64	139.108
1476.19	124.102
1479.74	68.676
1483.29	55.028
1486.84	48.781
1490.39	14.437
1493.94	4.954
1497.48	0.239
1501.02	0.729
1504.57	8.737
1508.11	17.411
1511.64	26.694
1515.18	30.536
1518.72	9.466
