Measurement: Raman, 514 nm, ccw, Raman Data Processed
Mineral: Titanite
Rruff sample: R050114
Ideal chemistry: CaTiSiO_5_
Locality: Isthak Valley Iskardu, Northern Areas Gilgit, Pakistan
Source: Syed Shah
Description: Yellowish-brown fragment
Measured chemistry: (Ca_0.99_Na_0.01_)(Ti_0.96_Al_0.03_Fe^3+^_0.01_)Si_1.00_O_4_(O_0.95_F_0.05_)
Pin_id: L00193
Orientation: Laser parallel to c* (0 0 1). Fiducial mark perpendicular to laser is parallel to -a [-1 0 0]
Raman shift (cm-1)	intensity
49.365	0
53.566	156.894
57.765	287.016
61.962	391.095
66.157	697.983
70.349	447.629
74.54	127.733
78.729	99.255
82.916	221.14
87.101	40.719
91.284	347.379
95.465	1238.6
99.644	2725.8
103.82	4128.65
107.995	5630.01
112.168	7130.46
116.339	8173.32
120.508	8844.39
124.675	9742.76
128.84	11037.7
133.003	11588.7
137.164	11493.1
141.323	12130.2
145.48	13739.3
149.635	13608.9
153.788	15330.9
157.939	20413.6
162.088	26296.6
166.235	26630.1
170.38	22674.5
174.523	19859.9
178.664	19136.7
182.803	19144.9
186.94	19594.7
191.076	19486
195.209	20428.9
199.34	22143.6
203.47	24439.9
207.597	26688.1
211.722	27548.1
215.846	28001.9
219.967	28809.5
224.087	29535.4
228.204	30649.4
232.32	31931.7
236.434	31350.5
240.545	30251.5
244.655	32548.5
248.763	36912.8
252.869	39263.7
256.973	37777.3
261.075	32661.1
265.175	26267.7
269.273	20857
273.369	17128.6
277.463	14882.6
281.556	14278.7
285.646	13826.9
289.734	13657
293.821	12679.1
297.905	12683
301.988	14868.8
306.069	16626.3
310.147	17485.7
314.224	18546.5
318.299	19208.7
322.372	18182.2
326.443	17747.1
330.512	18643.3
334.579	19360.9
338.645	18449.9
342.708	15910.4
346.769	13242.2
350.829	11905.4
354.887	11170
358.942	9576.06
362.996	8173.49
367.048	7012.31
371.098	5572.53
375.146	4054.13
379.192	2367.16
383.236	1039.91
387.279	458.472
391.319	45.133
395.358	735.617
399.394	1302.24
403.429	1545.3
407.462	1413.98
411.493	1135.91
415.522	226.544
419.549	1795.27
423.575	4598.86
427.598	5836.22
431.619	4775.32
435.639	3866.17
439.657	3848.74
443.673	4173.04
447.687	4839.14
451.699	5927.26
455.709	8347.61
459.717	12970.4
463.724	19875.8
467.728	26673.9
471.731	27104.9
475.732	18738.4
479.731	10094.5
483.728	4672.89
487.723	2833.49
491.716	2376.04
495.708	2420.48
499.697	2426.74
503.685	2604.77
507.671	2994.53
511.655	3656
515.637	4489.16
519.617	5224.02
523.596	6430.55
527.572	8348.75
531.547	10788.6
535.52	13920.1
539.491	16483.3
543.46	19198.1
547.427	20894.4
551.393	20477.2
555.356	18670.4
559.318	15621.6
563.278	12658.1
567.236	9543.51
571.192	7437.44
575.147	7749.31
579.099	10349.9
583.05	15152.5
586.999	20647
590.946	26843.5
594.891	34502
598.834	41532.3
602.776	47335.1
606.715	49522.3
610.653	48024.6
614.589	44410.9
618.523	40043.7
622.456	35027.4
626.386	30243
630.315	26574.8
634.242	23697
638.167	21309.3
642.09	18813.4
646.012	16444.7
649.931	14369.7
653.849	13123.2
657.765	11894.1
661.679	10883.5
665.592	9503.31
669.502	8473.77
673.411	7985.12
677.318	7137.44
681.223	6430.7
685.126	5674.87
689.028	5009.92
692.927	4485.81
696.825	4102.51
700.721	3499.98
704.616	3058.19
708.508	2756.17
712.399	2398.53
716.288	2192.46
720.175	1997.03
724.06	1538.5
727.944	1211.57
731.825	982.968
735.705	871.062
739.584	694.532
743.46	566.33
747.334	384.411
751.207	242.732
755.078	21.258
758.947	44.07
762.815	193.542
766.68	280.68
770.544	385.978
774.406	395.909
778.267	414.006
782.125	346.839
785.982	369.611
789.837	346.89
793.69	98.218
797.542	44.301
801.391	65.164
805.239	130.248
809.085	209.104
812.93	295.336
816.772	379.509
820.613	493.676
824.452	581.729
828.29	640.162
832.125	745.964
835.959	865.118
839.791	1120.63
843.621	1496.48
847.45	2181.67
851.277	3143.14
855.102	3997.85
858.925	4868.74
862.746	4760.76
866.566	4946.88
870.384	5665.06
874.2	6461.23
878.015	7004.35
881.828	8003.33
885.639	9148.13
889.448	9741.74
893.256	8134.11
897.061	5893.25
900.865	4249.14
904.668	3633.26
908.468	3992.21
912.267	4487.72
916.064	4196.43
919.86	2825.31
923.653	1744.73
927.445	1025.3
931.236	624.376
935.024	281.917
938.811	111.04
942.596	40.883
946.379	94.403
950.161	92.419
953.94	23.046
957.719	41.928
961.495	184.291
965.27	366.995
969.043	565.762
972.814	894.806
976.583	1122.14
980.351	1171.5
984.117	1180.71
987.882	1167.58
991.644	1255.04
995.405	1360.4
999.165	1373.46
1002.92	1401.31
1006.68	1482.63
1010.43	1626.04
1014.18	1695.7
1017.93	1738.45
1021.68	1855.28
1025.43	1880.21
1029.18	1710.26
1032.92	1556.43
1036.66	1253.74
1040.4	1173.21
1044.14	987.853
1047.88	863.687
1051.62	719.729
1055.35	518.987
1059.08	484.455
1062.81	429.157
1066.54	385.31
1070.27	400.12
1073.99	485.887
1077.72	697.807
1081.44	987.397
1085.16	1448.87
1088.88	1840.17
1092.59	1917.31
1096.31	1534.76
1100.02	1045.9
1103.73	628.95
1107.44	454.756
1111.15	305.738
1114.86	236.089
1118.57	168.838
1122.27	99.639
1125.97	77.086
1129.67	15.171
1133.37	14.872
1137.07	15.828
1140.76	69.973
1144.45	81.581
1148.15	41.648
1151.84	9.095
1155.53	92.145
1159.21	321.146
1162.9	643.959
1166.58	944.6
1170.26	1627.08
1173.94	2576.41
1177.62	3952.58
1181.3	4502.62
1184.97	3793.51
1188.65	2799.29
1192.32	2427.94
1195.99	2552.49
1199.66	2719.94
1203.33	2659.33
1206.99	2425.84
1210.65	2450.75
1214.32	2526.31
1217.98	2174.94
1221.64	1831.39
1225.29	1695.26
1228.95	1881.37
1232.6	1940.26
1236.26	2035.71
1239.91	2105.31
1243.56	2131.67
1247.2	2185.24
1250.85	1951.44
1254.49	1624.45
1258.13	1309.3
1261.78	1053.49
1265.41	933.093
1269.05	797.966
1272.69	700.354
1276.32	702.846
1279.95	642.29
1283.59	599.468
1287.21	604.897
1290.84	702.678
1294.47	829.626
1298.09	1024.28
1301.72	1154.34
1305.34	1218.33
1308.96	1179.57
1312.58	1166.78
1316.19	1131.69
1319.81	1085.13
1323.42	976.913
1327.03	905.183
1330.64	824.284
1334.25	704.266
1337.86	724.131
1341.46	789.851
1345.07	797.527
1348.67	820.2
1352.27	740.936
1355.87	666.899
1359.46	577.392
1363.06	425.546
1366.65	312.173
1370.25	204.981
1373.84	110.01
1377.43	109.58
1381.02	19.299
1384.6	1.542
1388.18	21.214
1391.77	10.43
1395.35	51.286
1398.93	58.53
1402.51	64.796
1406.08	39.9
1409.66	17.384
1413.23	66.036
1416.8	117.797
1420.37	194.515
1423.94	253.206
1427.51	333.945
1431.08	419.791
1434.64	499.777
1438.2	619.934
1441.76	738.247
1445.32	850.687
1448.88	951.35
1452.43	967.317
1455.99	936.772
1459.54	881.864
1463.09	750.776
1466.64	611.651
1470.19	533.7
1473.74	394.447
1477.28	255.391
1480.83	263.188
1484.37	146.217
1487.91	116.633
1491.45	77.551
1494.98	0.004
1498.52	26.211
1502.05	57.062
1505.59	71.797
1509.12	92.428
1512.65	68.271
1516.17	42.492
1519.7	20.102
1523.23	0.327
