Measurement: Raman, 514 nm, ccw, Raman Data Processed
Mineral: Titanite
Rruff sample: R050124
Ideal chemistry: CaTiSiO_5_
Locality: Capelinha, Minas Gerais, Brazil
Source: Carlos and Paulo Vasconcelos
Description: Yellow tabular crystal
Measured chemistry: Ca_1.00_(Ti_0.93_Al_0.05_Fe^3+^_0.02_)Si_1.00_O_4_(O)_1.00_
Pin_id: M00070
Orientation: Laser parallel to (-1 0 -1). Fiducial mark perpendicular to laser is parallel to b [0 1 0]
Raman shift (cm-1)	intensity
122.032	0
126.201	127.685
130.367	46.089
134.532	76.232
138.695	1150.37
142.856	5682.73
147.014	6209.36
151.171	1793.52
155.325	381.329
159.478	806.536
163.629	1530.82
167.777	1899.81
171.924	2395.96
176.068	3053.88
180.211	3875.69
184.351	4541.09
188.49	4553.3
192.626	4478.51
196.761	4826.27
200.893	5855.87
205.024	5967.12
209.152	5734.36
213.279	5482.84
217.403	5474.33
221.526	5984.94
225.646	6875.06
229.765	8274.97
233.881	10144.9
237.996	8364.9
242.108	6605.13
246.219	7365.6
250.328	8756.34
254.434	9568.85
258.539	9216.69
262.641	8015.54
266.742	5964.18
270.84	4263.18
274.937	3076.47
279.032	2623.02
283.125	2869.84
287.215	3959.61
291.304	5787.78
295.391	6219.89
299.476	5892.27
303.558	7181.62
307.639	9837.56
311.718	15230.7
315.795	27205.8
319.87	32742.7
323.943	25051.1
328.014	17180.8
332.083	13801.7
336.15	11593.6
340.215	10006.3
344.279	9519.82
348.34	11764
352.399	13708.8
356.457	10004
360.512	5689.65
364.565	3260.68
368.617	1919.08
372.666	1012.8
376.714	345.705
380.76	60.293
384.803	235.489
388.845	100.109
392.885	37.042
396.923	280.224
400.959	844.558
404.993	1771.05
409.025	3500.72
413.055	7254.55
417.084	13941.1
421.11	23656.8
425.134	26492.5
429.157	18258.4
433.177	9711.1
437.196	4481.04
441.213	1962.72
445.227	572.748
449.24	327.851
453.251	746.286
457.26	804.303
461.267	434.314
465.272	109.406
469.276	195.021
473.277	765.845
477.276	1392.09
481.274	2092.74
485.27	2878.78
489.263	3477.22
493.255	4050.06
497.245	3791.3
501.233	3307.94
505.219	2847
509.203	2714.46
513.186	2941.35
517.166	3036.65
521.145	3313.38
525.121	3721.54
529.096	4256.15
533.069	5131.2
537.04	6346.72
541.009	7384.52
544.976	8139.51
548.941	7835.74
552.905	7383.66
556.866	6011.23
560.826	5099.84
564.784	5089.03
568.74	5568.8
572.694	6229.15
576.646	7280.1
580.596	9131.69
584.544	11643.9
588.491	14836.8
592.435	19420.3
596.378	24934.5
600.319	31564
604.258	38506.6
608.195	42426.4
612.131	43633.9
616.064	41327.4
619.995	37534.4
623.925	33659.8
627.853	29018.5
631.779	24699.9
635.703	21452.2
639.625	18765.7
643.546	15840.7
647.464	13967.2
651.381	12535.2
655.296	11304.3
659.209	10304.7
663.12	8996.02
667.029	8138.35
670.937	7461.62
674.842	6605.83
678.746	6290.98
682.648	5627.07
686.548	5174.09
690.447	4512.05
694.343	4150.94
698.238	3800.82
702.13	3372.1
706.021	2892.82
709.91	2519.72
713.798	2186.63
717.683	1980.43
721.567	1756.13
725.448	1464.72
729.328	1230.2
733.206	1096.56
737.083	940.792
740.957	679.892
744.83	344.893
748.701	230.829
752.57	35.753
756.437	10.331
760.302	77.577
764.166	187.951
768.027	240.625
771.887	142.081
775.745	89.264
779.602	40.798
783.456	41.519
787.309	80.579
791.16	107.853
795.009	445.362
798.856	776.187
802.702	1184.76
806.545	1914.35
810.387	2954.8
814.227	4124.12
818.065	5186.8
821.902	6078.24
825.737	6650.16
829.569	6992.55
833.401	7615.38
837.23	8928.62
841.057	11372.3
844.883	14626.3
848.707	19210.6
852.529	23385.3
856.35	26920.2
860.168	26985.4
863.985	25860.8
867.8	26946.4
871.613	27272.1
875.425	22568
879.234	16534
883.042	12100.1
886.848	9136.25
890.653	6832.56
894.455	5327.27
898.256	4948.28
902.055	5357.95
905.852	7151.1
909.648	9650.48
913.442	9977.79
917.233	7691.78
921.024	4440.37
924.812	2337.57
928.599	1227.05
932.384	650.11
936.167	296.109
939.948	89.319
943.728	95.362
947.506	186.415
951.282	146.471
955.056	101.191
958.829	5.007
962.6	11.444
966.369	27.609
970.136	183.535
973.902	317.351
977.666	434.659
981.428	447.207
985.188	420.642
988.947	427.166
992.704	424.185
996.459	481.7
1000.21	650.475
1003.96	853.357
1007.71	880.885
1011.46	1082.17
1015.21	1063.36
1018.95	1131.97
1022.7	1211.97
1026.44	1029.38
1030.18	722.176
1033.91	500.354
1037.65	383.906
1041.39	274.826
1045.12	172.068
1048.85	139.54
1052.58	92.137
1056.31	75.729
1060.03	1.748
1063.76	4.273
1067.48	21.708
1071.2	68.038
1074.92	217.133
1078.63	266.582
1082.35	373.419
1086.06	474.658
1089.78	506.045
1093.49	430.875
1097.19	343.177
1100.9	228.304
1104.61	93.003
1108.31	93.299
1112.01	34.217
1115.71	13.453
1119.41	39.315
1123.11	43.87
1126.8	105.763
1130.5	86.003
1134.19	142.599
1137.88	79.575
1141.57	92.931
1145.25	87.679
1148.94	143.842
1152.62	224.448
1156.3	232.516
1159.98	402.064
1163.66	446.115
1167.34	596.678
1171.01	803.757
1174.68	1203.36
1178.36	1786.49
1182.02	1891.15
1185.69	1465.36
1189.36	1149.5
1193.02	982.05
1196.69	1017.62
1200.35	980.574
1204.01	817.383
1207.66	819.968
1211.32	956.767
1214.98	1016.68
1218.63	827.924
1222.28	774.632
1225.93	703.778
1229.58	752.38
1233.22	710.481
1236.87	847.913
1240.51	857.584
1244.15	1013.09
1247.79	1078.22
1251.43	1016.54
1255.07	751.097
1258.7	558.106
1262.33	561.05
1265.96	328.363
1269.59	261.254
1273.22	317.361
1276.85	304.719
1280.47	257.172
1284.1	194.933
1287.72	228.116
1291.34	291.98
1294.95	368.421
1298.57	462.946
1302.19	429.655
1305.8	409.069
1309.41	507.38
1313.02	467.478
1316.63	494.397
1320.23	475.156
1323.84	409.754
1327.44	330.223
1331.05	237.572
1334.64	158.8
1338.24	98.934
1341.84	96.018
1345.43	104.134
1349.03	110.358
1352.62	29.767
1356.21	21.634
1359.8	15.867
1363.39	53.697
1366.97	46.675
1370.56	21.548
1374.14	25.448
1377.72	12.398
1381.3	7.348
1384.87	35.919
1388.45	0.472
1392.02	3.871
1395.6	16.061
1399.17	19.238
1402.74	8.994
1406.3	12.756
1409.87	8.607
1413.43	56.035
1417	98.498
1420.56	114.021
1424.12	134.638
1427.67	119.379
1431.23	162.217
1434.79	194.099
1438.34	245.541
1441.89	343.023
1445.44	341.787
1448.99	427.889
1452.54	448.139
1456.08	473.978
1459.62	468.04
1463.17	416.666
1466.71	336.708
1470.24	267.039
1473.78	223.69
1477.32	159.704
1480.85	138.086
1484.38	115.29
1487.91	93.821
1491.44	71.961
1494.97	98.553
1498.5	83.567
1502.02	91.724
1505.54	88.221
1509.07	91.391
1512.59	58.866
1516.1	51.554
