Measurement: Raman, 514 nm, ccw, Raman Data Processed
Mineral: Titanite
Rruff sample: R050039
Ideal chemistry: CaTiSiO_5_
Locality: Kingman, Arizona, USA
Source: University of Arizona Mineral Museum
Description: Black fragment from a single crystal
Measured chemistry: (Ca_0.95_Y_0.05_)(Ti_0.85_Al_0.10_Fe^3+^_0.06_)Si_1.00_O_4_(O_0.93_F_0.07_)
Pin_id: L00107
Orientation: Laser parallel to (-1 0 -1). Fiducial mark perpendicular to laser is parallel to b [0 1 0]
Raman shift (cm-1)	intensity
77.813	0
81.996	134.189
86.178	232.047
90.357	1016.2
94.534	2067.68
98.709	2169.64
102.883	2419.99
107.054	2821.58
111.223	3035.76
115.391	2970.52
119.556	2608.16
123.72	2762.68
127.882	2556.09
132.041	2813.18
136.199	3450.48
140.355	4165.5
144.509	4877.19
148.66	6276.28
152.81	7591.81
156.958	8191.64
161.105	9132.22
165.249	9728.7
169.391	9655.52
173.531	10085.2
177.669	11149
181.806	11217.4
185.94	11560.8
190.073	12419.3
194.204	12972.8
198.332	12971.1
202.459	14665
206.584	15571.2
210.707	16133.6
214.828	17171.3
218.947	18387.4
223.064	19155.9
227.179	19365.7
231.293	19166.6
235.404	18639
239.514	19932.8
243.621	21219.5
247.727	21800.1
251.831	21919.4
255.933	21875.1
260.033	20123.4
264.131	18071.9
268.227	16318.8
272.321	14472.9
276.413	12183.1
280.504	11098.8
284.592	10019.2
288.679	9213.83
292.764	8672.22
296.847	8823.99
300.928	9318.85
305.007	9786.52
309.084	10016.8
313.159	10449.3
317.233	10623.9
321.304	10636
325.374	10324
329.442	10004
333.508	9913.45
337.572	9256.04
341.634	8677.95
345.694	8195.13
349.753	8487.4
353.809	8091.58
357.864	8015
361.916	8172.5
365.967	7679.2
370.016	6246.12
374.064	5273.05
378.109	3769.75
382.152	2096.06
386.194	871.934
390.233	7.328
394.271	497.947
398.307	614.654
402.341	564.346
406.374	242.385
410.404	1179.78
414.433	3008.09
418.459	3717.01
422.484	3956.33
426.507	3565.9
430.528	3045.58
434.547	2275.28
438.565	1774.89
442.58	1604.34
446.594	1783.55
450.606	1792.45
454.616	2541
458.624	2809.13
462.631	3146.82
466.635	2614.03
470.638	2510.77
474.639	1307.01
478.638	522.77
482.635	297.949
486.63	298.557
490.624	648.934
494.615	704.281
498.605	815.34
502.593	862.449
506.579	695.51
510.564	373.453
514.546	74.799
518.527	391.969
522.506	1098.01
526.483	1773.51
530.458	2358.48
534.431	3232.93
538.403	3486.89
542.373	4031.3
546.341	4283.36
550.307	4225.59
554.271	3803.8
558.234	4150.72
562.195	4266.83
566.154	5917.21
570.111	8108.23
574.066	10429.1
578.019	12539.7
581.971	14250.1
585.921	15500.4
589.869	16800.5
593.815	17610.4
597.76	18630.2
601.703	20249.9
605.644	20979.5
609.583	22019
613.52	22328.5
617.455	22418.1
621.389	22698.9
625.321	23641.4
629.251	23595.8
633.18	23352.5
637.106	23191.2
641.031	23024.5
644.954	22905.5
648.875	22645.2
652.795	21814.4
656.712	20858.4
660.628	20498.9
664.542	19619.4
668.455	18445.2
672.365	17419
676.274	16996.6
680.181	16293.3
684.086	15731
687.99	15249.6
691.891	14109.2
695.791	13459.7
699.689	12741.3
703.586	12383.8
707.48	12357.4
711.373	11242.4
715.264	10649.4
719.154	9938.89
723.041	9500.08
726.927	8872.3
730.811	7885.55
734.693	7779.84
738.574	7095.15
742.453	6631.5
746.33	6448.88
750.205	5897.28
754.079	5206.71
757.95	4947.16
761.82	4358.64
765.689	3851.5
769.555	3749.93
773.42	3701.33
777.283	3639.86
781.144	3228.39
785.004	3376.15
788.862	3324.82
792.718	3063.44
796.572	2565.58
800.425	2263.41
804.276	2090.3
808.125	1816.24
811.972	1185.38
815.818	1167.83
819.662	783.385
823.504	651.564
827.345	491.6
831.183	202.78
835.02	214.862
838.856	137.828
842.689	611.369
846.521	725.247
850.351	889.336
854.18	1323.54
858.006	2017.83
861.831	2842.16
865.655	3846.5
869.476	5130.81
873.296	5875.03
877.114	6779.11
880.93	7153.02
884.745	6786.73
888.558	6380.18
892.369	6323.36
896.179	5466.23
899.987	4308.76
903.793	3320.9
907.597	2172.62
911.4	1763.89
915.201	1176.59
919.001	340.693
922.798	6.728
926.594	506.64
930.388	521.793
934.181	651.542
937.972	805.988
941.761	505.599
945.548	219.729
949.334	42.763
953.118	385.512
956.901	1190.67
960.681	2066.85
964.46	2624.54
968.238	3243.91
972.013	4087.79
975.787	4488.04
979.56	4401.61
983.33	4469.23
987.099	4380.94
990.866	4415.67
994.632	4470.55
998.396	4484.48
1002.16	4571.04
1005.92	4325.32
1009.68	4728.19
1013.43	4519.63
1017.19	4709.64
1020.94	4188.19
1024.7	3985.27
1028.45	3610.88
1032.19	3385
1035.94	3337.62
1039.69	3250.25
1043.43	3078.33
1047.17	2706.4
1050.91	2392.93
1054.65	1947.92
1058.39	1851.37
1062.13	1583.26
1065.86	1388.96
1069.59	1401.03
1073.32	1437.03
1077.05	1543.04
1080.78	1621.9
1084.5	1873.18
1088.23	1933.37
1091.95	1511.1
1095.67	1177.93
1099.39	999.667
1103.11	528.679
1106.82	334.991
1110.54	251.358
1114.25	206.597
1117.96	50.573
1121.67	26.88
1125.38	46.018
1129.08	16.966
1132.79	179.812
1136.49	194.96
1140.19	12.237
1143.89	378.973
1147.59	809.007
1151.28	1478.01
1154.98	2066.05
1158.67	2933.11
1162.36	4039.2
1166.05	5114.31
1169.74	6298.47
1173.43	7571.68
1177.11	7943.92
1180.79	7725.23
1184.47	7105.58
1188.15	6445
1191.83	5953.5
1195.51	5531.11
1199.18	5637.82
1202.86	5333.67
1206.53	5118.85
1210.2	4713.1
1213.87	4404.3
1217.54	4033.87
1221.2	3983.98
1224.86	4337.19
1228.53	4856.25
1232.19	5247.82
1235.85	5501.8
1239.5	5793.85
1243.16	6023.69
1246.81	5881.3
1250.46	5458.7
1254.12	4834.77
1257.76	4738.99
1261.41	4204.37
1265.06	3863.55
1268.7	3682.98
1272.34	3415.19
1275.99	3114.99
1279.62	3087.3
1283.26	3243.39
1286.9	3467.43
1290.53	3782.81
1294.17	4343.05
1297.8	4645.62
1301.43	4976.18
1305.06	5365.07
1308.68	5642.88
1312.31	5559.73
1315.93	5405.51
1319.56	5429.98
1323.18	5113.1
1326.8	4745.14
1330.41	4506.2
1334.03	4166.31
1337.64	3757.52
1341.26	3136.3
1344.87	2684.12
1348.47	2283.21
1352.08	1859.25
1355.69	1545.44
1359.29	1251.77
1362.9	817.726
1366.5	732.02
1370.1	493.988
1373.7	223.949
1377.29	32.94
1380.89	174.922
1384.48	223.453
1388.08	148.371
1391.67	144.961
1395.26	83.463
1398.84	19.176
1402.43	214.191
1406.01	249.822
1409.6	426.38
1413.18	624.182
1416.76	863.468
1420.34	844.188
1423.91	1035.18
1427.49	1356.41
1431.06	1583.05
1434.63	1805.02
1438.2	1906.24
1441.77	1776.84
1445.34	1781.64
1448.9	1737.07
1452.47	1555.31
1456.03	1411.52
1459.59	1128.52
1463.15	950.204
1466.71	779.432
1470.27	581.638
1473.82	381.455
1477.37	340.089
1480.93	341.221
1484.48	328.599
1488.03	0
