Measurement: Raman, 514 nm, ccw, Raman Data Processed
Mineral: Titanite
Rruff sample: R040033
Ideal chemistry: CaTiSiO_5_
Locality: Brazil
Source: University of Arizona Mineral Museum
Description: Green flattened wedge-shaped single crystals
Measured chemistry: (Ca_0.97_Fe^3+^_0.03_)_Σ=1_(Ti_0.97_Al_0.03_)_Σ=1_Si_1.00_O_5_; Fe^3+^ assigned for charge balance
Pin_id: L00157
Orientation: Laser parallel to -b* (0 -1 0). Fiducial mark perpendicular to laser is parallel to c [0 0 1]
Raman shift (cm-1)	intensity
51.466	0
55.666	244.709
59.863	81.124
64.059	119.992
68.253	601.898
72.445	1785.13
76.635	3350.15
80.823	4187.42
85.009	4549.48
89.193	4659.9
93.375	4583.68
97.554	4305.19
101.732	4351.16
105.908	4700.27
110.082	4932.84
114.254	5136.23
118.424	5031.57
122.592	5404.41
126.758	6281.62
130.922	6954.29
135.083	8957.88
139.243	12527.6
143.401	16172.9
147.557	16945.4
151.711	16836.6
155.863	18454.1
160.013	19921.3
164.161	17149.4
168.308	13287.9
172.452	11059.8
176.594	10229.2
180.734	10270.2
184.872	9819.9
189.008	9265.19
193.143	9521.07
197.275	10064.5
201.405	10744.5
205.534	11466
209.66	11570.1
213.784	11213.6
217.907	11698.5
222.027	12181.5
226.146	12751
230.263	13313.7
234.377	13394.6
238.49	14266.4
242.601	16324.9
246.709	19311.5
250.816	21615.8
254.921	21457.8
259.024	18481.1
263.125	14439.3
267.224	11134.3
271.321	9391.57
275.416	8753.04
279.51	9500.48
283.601	11733.7
287.69	14891.7
291.778	14574.2
295.863	11687.3
299.947	10744.7
304.029	11157.4
308.108	12863.4
312.186	16155.3
316.262	16868.1
320.336	12897.7
324.408	9992.13
328.478	9188.4
332.546	9054.48
336.612	8201.38
340.677	6902.08
344.739	5835.57
348.799	5187.83
352.858	4214.85
356.915	3183.61
360.969	2619.1
365.022	1975.32
369.073	1328.24
373.122	752.858
377.169	178.157
381.215	382.183
385.258	509.118
389.299	669.204
393.339	972.096
397.376	1120.15
401.412	972.18
405.446	642.751
409.478	646.96
413.508	3362.44
417.536	7527.92
421.562	10309.4
425.586	8518.75
429.609	4924.05
433.629	2782.23
437.648	1579.73
441.665	1096.31
445.68	1080.47
449.693	1425.9
453.704	2700.73
457.713	5846.87
461.721	10549.3
465.726	14762
469.73	13495.9
473.731	8180.23
477.731	4887.73
481.729	3191.42
485.725	2564.27
489.72	2246.04
493.712	2193.64
497.703	2033.07
501.691	1962.32
505.678	2057.37
509.663	2383.22
513.646	2839.89
517.627	3230.36
521.607	3742.64
525.584	4419.72
529.56	5807.59
533.534	7279.27
537.506	8578.75
541.476	9604.44
545.444	9554.57
549.41	9246.5
553.375	8496.97
557.337	8329.85
561.298	9516.13
565.257	10616.3
569.214	10906
573.17	10851.5
577.123	11449.3
581.075	13523.3
585.024	16940.5
588.972	21748.9
592.918	27349.5
596.863	33906
600.805	40491.8
604.746	45257.7
608.685	46301.5
612.621	43320.6
616.557	39633.5
620.49	34321
624.421	30703.6
628.351	26117.1
632.279	22738
636.205	20204.1
640.129	17615.8
644.051	15160
647.972	13267.4
651.89	12120.8
655.807	10411.8
659.722	9364.67
663.636	8353.4
667.547	7273.94
671.457	6765.27
675.365	6053.37
679.271	5267.23
683.175	4848.81
687.077	4029.1
690.978	3770.07
694.877	3417.71
698.774	2945.47
702.669	2534.04
706.562	2344.66
710.454	1942.75
714.344	1586.82
718.232	1451.08
722.118	1338.96
726.002	1192.26
729.885	866.064
733.766	668.366
737.645	585.149
741.522	266.433
745.397	136.306
749.271	4.718
753.143	14.451
757.013	60.544
760.881	236.925
764.748	330.974
768.613	156.883
772.476	151.446
776.337	80.818
780.196	199.813
784.054	180.662
787.91	147.927
791.764	89.44
795.616	133.285
799.467	136.742
803.316	231.601
807.163	357.347
811.008	465.091
814.851	795.376
818.693	1222.17
822.533	1450.15
826.371	1746.33
830.208	1966.33
834.042	2308.25
837.875	2831.59
841.706	3519.43
845.536	4556.06
849.363	6144.43
853.189	7937.51
857.013	10323.3
860.836	13433.7
864.656	17904.7
868.475	23920.2
872.292	25939.3
876.108	22968.7
879.922	20539.9
883.733	17735
887.544	14295.9
891.352	10067.9
895.159	7490.76
898.964	6203.46
902.767	5942.89
906.568	6749.69
910.368	6896.35
914.166	5752.62
917.962	3431.92
921.757	1873.04
925.55	1052.96
929.341	580.277
933.13	353.52
936.918	181.504
940.703	143.043
944.488	77.118
948.27	57.285
952.051	7.529
955.83	13.277
959.607	137.101
963.383	254.927
967.156	142.111
970.928	226.063
974.699	314.024
978.468	206.113
982.234	407.25
986	379.029
989.763	413.358
993.525	430.644
997.285	434.921
1001.04	536.651
1004.8	751.563
1008.55	810.058
1012.31	971.143
1016.06	910.125
1019.81	808.529
1023.56	827.156
1027.31	575.092
1031.05	276.324
1034.79	188.829
1038.53	110.579
1042.27	43.527
1046.01	53.441
1049.75	24.55
1053.48	19.648
1057.22	33.361
1060.95	81.125
1064.68	60.734
1068.4	113.432
1072.13	112.893
1075.86	281.067
1079.58	319.112
1083.3	501.771
1087.02	475.129
1090.74	490.859
1094.45	399.276
1098.17	291.951
1101.88	184.966
1105.59	4.799
1109.3	46.116
1113.01	95.894
1116.71	38.069
1120.42	142.669
1124.12	146.646
1127.82	23.49
1131.52	89.377
1135.22	192.714
1138.91	59.678
1142.61	54.917
1146.3	140.951
1149.99	87.927
1153.68	37.981
1157.37	210.749
1161.06	296.991
1164.74	412.692
1168.42	442.081
1172.1	715.156
1175.78	959.099
1179.46	1155.84
1183.14	1164.69
1186.81	847.92
1190.48	619.693
1194.15	563.794
1197.83	652.438
1201.49	626.081
1205.16	599.157
1208.82	626.97
1212.49	839.397
1216.15	676.538
1219.81	550.753
1223.46	352.235
1227.12	362.006
1230.78	334.355
1234.43	294.247
1238.08	299.697
1241.73	332.567
1245.38	275.245
1249.03	321.755
1252.67	155.033
1256.31	101.973
1259.95	26.109
1263.6	115.914
1267.23	67.31
1270.87	58.57
1274.51	7.861
1278.14	21.503
1281.77	76.559
1285.4	17.368
1289.03	102.36
1292.66	0.23
1296.28	63.992
1299.91	34.026
1303.53	5.781
1307.15	122.167
1310.77	23.039
1314.38	29.615
1318	44.627
1321.61	86.633
1325.23	117.46
1328.84	19.136
1332.45	38.676
1336.06	61.168
1339.66	45.211
1343.27	82.254
1346.87	149.861
1350.47	156.485
1354.07	129.555
1357.67	150.789
1361.26	100.889
1364.86	100.658
1368.45	3.489
1372.04	39.359
1375.63	144.939
1379.22	104.474
1382.81	98.703
1386.39	148.118
1389.98	40.206
1393.56	12.759
1397.14	63.87
1400.72	117.21
1404.3	77.579
1407.87	0.238
1411.45	148.188
1415.02	153.955
1418.59	198.34
1422.16	181.145
1425.73	149.818
1429.29	284.065
1432.86	371.979
1436.42	451.874
1439.98	336.301
1443.54	406.396
1447.1	467.566
1450.66	521.591
1454.21	594.317
1457.77	525.639
1461.32	400.906
1464.87	346.309
1468.42	346.785
1471.96	328.391
1475.51	278.302
1479.06	208.41
1482.6	254.418
1486.14	223.649
1489.68	156.446
1493.22	148.801
1496.75	104.591
1500.29	135.578
1503.82	209.173
1507.35	214.286
1510.88	130.73
1514.41	160.935
1517.94	189.38
1521.46	199.684
