Measurement: Raman, 514 nm, ccw, Raman Data Processed
Mineral: Titanite
Rruff sample: R050114
Ideal chemistry: CaTiSiO_5_
Locality: Isthak Valley Iskardu, Northern Areas Gilgit, Pakistan
Source: Syed Shah
Description: Yellowish-brown fragment
Measured chemistry: (Ca_0.99_Na_0.01_)(Ti_0.96_Al_0.03_Fe^3+^_0.01_)Si_1.00_O_4_(O_0.95_F_0.05_)
Pin_id: L00085
Orientation: Laser parallel to a* (1 0 0). Fiducial mark perpendicular to laser is parallel to -b [0 -1 0]
Raman shift (cm-1)	intensity
120.447	0
124.636	78.027
128.822	63.607
133.006	71.862
137.188	268.007
141.368	1247.38
145.545	1651.42
149.72	724.562
153.893	680.203
158.064	1587.06
162.233	2505.11
166.399	3494.44
170.563	4724.15
174.725	6218.09
178.885	7083.5
183.043	7348.48
187.198	7381.66
191.351	7512.03
195.502	8068.81
199.651	8971.35
203.797	9729.01
207.942	9670.26
212.084	9720.71
216.224	9868.25
220.362	10702.2
224.497	11486.2
228.631	10880.9
232.762	9946.39
236.891	9343.03
241.018	9210.96
245.143	10480.3
249.265	12341
253.386	11873.3
257.504	10467
261.62	8172.28
265.734	5809.03
269.845	3507.27
273.955	2086.99
278.062	1498.2
282.167	1770.89
286.27	2719.34
290.371	3378.18
294.47	3285.25
298.567	3464.9
302.661	5270.85
306.753	9228.65
310.843	19875.5
314.931	40023.3
319.017	45094.4
323.101	30378.5
327.182	19805.3
331.261	14834.7
335.339	11786.4
339.414	9490.16
343.487	7445.89
347.557	7033.44
351.626	6552.69
355.693	5253.56
359.757	3505.97
363.819	2349.84
367.879	1375.11
371.937	611.746
375.993	173.604
380.047	300.477
384.099	918.286
388.148	1799.04
392.196	2840.74
396.241	3973.39
400.284	5066.98
404.325	6881.52
408.364	9616.98
412.401	15243.4
416.435	26270.6
420.468	41458.8
424.498	46177.9
428.527	33637.9
432.553	18388.7
436.577	9780.36
440.599	4882.88
444.619	2126.24
448.637	530.847
452.653	560.544
456.667	999.949
460.678	1114.58
464.688	1090.1
468.695	606.48
472.701	366.19
476.704	1914.97
480.705	3474.86
484.704	4928.98
488.701	5987.94
492.696	6441.1
496.689	6118.83
500.68	5720.56
504.668	5236.83
508.655	4804.1
512.639	5002.35
516.622	5291.57
520.602	5811.75
524.581	6422.87
528.557	7164.92
532.531	8887.9
536.503	10281.8
540.473	11276.6
544.441	11372.2
548.407	10888.8
552.371	9736.28
556.333	7684.61
560.293	6283.82
564.251	5923.89
568.206	7864.81
572.16	10516.6
576.112	13609.2
580.061	17652.7
584.009	22796.9
587.954	29382
591.897	35897.9
595.839	42104.6
599.778	48272.1
603.716	50969
607.651	50925.6
611.584	47205.4
615.515	41926.5
619.444	36316.1
623.372	31544
627.297	27840.5
631.22	24139
635.141	20984
639.06	18781
642.977	16550.1
646.892	14991.2
650.805	13283.6
654.716	11667
658.625	10501
662.532	9725.81
666.437	8861.33
670.34	8047.54
674.241	7034.44
678.139	6632.01
682.036	5900.23
685.931	5289.1
689.824	4738.61
693.715	4308.75
697.604	3819.51
701.491	3680.87
705.376	3152.82
709.259	2895.33
713.139	2478.4
717.018	2242
720.895	1906.11
724.77	1630.73
728.643	1415.83
732.514	1291.39
736.383	1127.4
740.25	897.831
744.115	841.677
747.978	547.915
751.839	180.529
755.698	137.5
759.555	216.294
763.41	218.825
767.263	332.244
771.114	377.495
774.964	422.865
778.811	341.299
782.656	0.119
786.499	159.184
790.341	455.579
794.18	720.239
798.017	1067.35
801.853	1352.66
805.686	1631.22
809.518	1947.97
813.347	2413.42
817.175	2990.18
821.001	3889.62
824.824	4968.99
828.646	6128.36
832.466	7017.78
836.284	8187.33
840.1	9847.17
843.914	12237.4
847.726	14707.9
851.536	17388.4
855.344	20188.6
859.15	23638.5
862.954	28878.2
866.756	36947.5
870.557	41806.5
874.355	39495.2
878.152	34323.5
881.946	32341.4
885.739	34039
889.53	30626.2
893.318	22452.9
897.105	15679.3
900.89	12805.2
904.673	13810.7
908.454	16655.7
912.234	17428
916.011	12944.1
919.786	7647.55
923.56	3945.91
927.331	2025.06
931.101	813.895
934.868	343.252
938.634	55.865
942.398	310.402
946.16	418.757
949.92	274.223
953.678	58.749
957.435	656.554
961.189	1635.87
964.941	3070.06
968.692	4980.06
972.441	6471.1
976.187	7103.84
979.932	6494.84
983.675	5930.26
987.416	5640.6
991.155	5655.78
994.893	5715.92
998.628	5754.86
1002.36	5579.56
1006.09	5623.19
1009.82	5906.3
1013.55	6688.88
1017.28	8070.95
1021	9522.5
1024.72	11023.5
1028.44	12704.1
1032.16	13514.1
1035.88	13433.7
1039.59	12262.8
1043.31	10241.4
1047.02	8249.52
1050.73	6747.18
1054.43	5584.4
1058.14	4520.16
1061.84	3474.66
1065.54	2680.37
1069.24	2066.43
1072.94	1971.98
1076.64	2418.06
1080.33	3293.71
1084.03	4551.92
1087.71	4811.87
1091.4	3901.51
1095.09	2375.96
1098.78	1072.76
1102.46	498.807
1106.14	266.625
1109.82	247.583
1113.5	140.573
1117.17	45.478
1120.85	0.717
1124.52	103.086
1128.19	146.913
1131.86	153.353
1135.52	183.64
1139.19	242.051
1142.85	139.746
1146.51	59.573
1150.17	532.635
1153.83	1563.66
1157.48	3248.66
1161.14	5366.64
1164.79	8748.62
1168.44	14420.6
1172.09	22722.6
1175.73	27274.6
1179.38	24156.6
1183.02	17828.6
1186.66	15210.6
1190.3	16362.7
1193.94	18894.8
1197.58	18207
1201.21	15599.3
1204.84	14031.6
1208.47	13424.1
1212.1	12816.6
1215.72	12679.1
1219.35	13731.7
1222.97	15774.3
1226.59	18067
1230.21	19789.7
1233.83	20382.8
1237.45	20177
1241.06	19945
1244.67	19058.4
1248.28	16996
1251.89	14217.4
1255.5	12088.7
1259.1	10133
1262.7	8853.99
1266.31	8047.32
1269.9	7389.73
1273.5	6882.08
1277.1	7061.83
1280.69	7444.91
1284.29	8471.16
1287.88	10102.3
1291.46	11856.5
1295.05	13356.5
1298.64	14146.8
1302.22	13987.4
1305.8	13388.3
1309.38	12599.3
1312.96	11799.8
1316.54	10899.8
1320.11	9529.53
1323.68	7929.24
1327.25	6389.12
1330.82	5221.12
1334.39	4214.27
1337.96	3772.03
1341.52	3334.44
1345.08	2876.43
1348.64	2558.28
1352.2	2230.83
1355.76	1693.25
1359.31	1341.1
1362.87	1004.33
1366.42	617.524
1369.97	384.821
1373.52	148.917
1377.06	80.317
1380.61	75.631
1384.15	5.711
1387.69	24.588
1391.23	58.631
1394.77	29.841
1398.3	54.898
1401.84	8.152
1405.37	54.591
1408.9	52.758
1412.43	17.346
1415.96	73.806
1419.48	215.7
1423.01	306.059
1426.53	465.868
1430.05	662.035
1433.57	804.771
1437.08	959.214
1440.6	1039.53
1444.11	1109.74
1447.62	966.847
1451.13	911.57
1454.64	714.327
1458.15	609.938
1461.65	422.576
1465.16	360.398
1468.66	272.355
1472.16	214.741
1475.65	81.495
1479.15	53.164
1482.64	4.128
1486.14	22.698
1489.63	54.163
1493.12	84.29
1496.61	93.416
1500.09	52.368
1503.58	68.385
1507.06	62.445
