Measurement: Raman, 514 nm, ccw, Raman Data Processed
Mineral: Titanite
Rruff sample: R050124
Ideal chemistry: CaTiSiO_5_
Locality: Capelinha, Minas Gerais, Brazil
Source: Carlos and Paulo Vasconcelos
Description: Yellow tabular crystal
Measured chemistry: Ca_1.00_(Ti_0.93_Al_0.05_Fe^3+^_0.02_)Si_1.00_O_4_(O)_1.00_
Pin_id: M00259
Orientation: Laser parallel to c* (0 0 1). Fiducial mark perpendicular to laser is parallel to a [1 0 0]
Raman shift (cm-1)	intensity
148.691	0
152.858	23.137
157.024	3314.47
161.187	7206.36
165.348	5941.76
169.507	2935.87
173.664	1930.48
177.819	2179.89
181.971	2680.21
186.122	2673.5
190.271	2787.35
194.417	3305.5
198.562	4689.12
202.704	6853.49
206.844	8706.17
210.983	8991.22
215.119	9134.9
219.253	10118.3
223.385	11521.6
227.515	12367.6
231.643	12698.8
235.769	12306.9
239.893	12236.8
244.014	15241.2
248.134	20031.7
252.252	23619
256.367	23273.8
260.481	18946.3
264.592	12956
268.702	8444.82
272.809	6031.95
276.915	5516.59
281.018	5833.76
285.119	6183.93
289.218	6179.85
293.316	4985.8
297.411	5610.78
301.504	8854.07
305.595	10995.7
309.684	12195.8
313.771	14693.5
317.856	16014.7
321.939	13190.9
326.02	11969.9
330.099	13397.4
334.176	14170.8
338.251	12818.3
342.323	9908.61
346.394	7730.9
350.463	5784.2
354.53	4767.84
358.594	4331.37
362.657	3824.52
366.718	2997.1
370.777	2017.95
374.833	1124.68
378.888	33.211
382.941	505.899
386.992	433.596
391.04	539.66
395.087	1149.39
399.132	1569.98
403.174	1489.17
407.215	905.722
411.254	384.713
415.29	2700.56
419.325	6532.74
423.358	9564.3
427.389	8324.09
431.417	5648.48
435.444	4365.18
439.469	3979.79
443.492	4224.09
447.512	4516.37
451.531	5808.26
455.548	8419.84
459.563	13511.2
463.576	20372.5
467.587	26333.8
471.596	21735.2
475.603	13067
479.608	7699.16
483.611	5281.43
487.612	4563.47
491.611	4695.18
495.608	4946.32
499.603	5016.73
503.596	4716.15
507.587	4974.48
511.577	5771.7
515.564	6727.81
519.549	7772.79
523.533	8756.66
527.514	9939.42
531.493	11951.1
535.471	14101.7
539.447	16680.4
543.42	18395.5
547.392	19269.6
551.362	18752.1
555.329	16379.3
559.295	13364.1
563.259	10577.7
567.221	7715.19
571.181	6000.4
575.139	6421
579.095	8775.31
583.049	12309.6
587.002	17133.8
590.952	22678
594.9	29522.4
598.847	37847
602.792	45222.1
606.734	50388.4
610.675	50180
614.614	46899.4
618.55	42615.9
622.485	38285.4
626.418	33493.8
630.349	28492.5
634.279	24444.2
638.206	21343.2
642.131	18836.1
646.055	16868.4
649.976	14601.1
653.896	13152.6
657.814	12133.8
661.729	10867.8
665.643	9731.81
669.555	8736.21
673.465	7890.97
677.373	7146.11
681.28	6541.62
685.184	5897.53
689.087	5103.84
692.987	4600.56
696.886	4171.83
700.783	3864.9
704.677	3451.52
708.57	2813.59
712.462	2500.06
716.351	2284.26
720.238	2017.69
724.124	1776.85
728.007	1409.97
731.889	1274.88
735.769	984.186
739.647	906.887
743.523	724.977
747.397	403.452
751.269	304.31
755.139	144.538
759.008	91.116
762.875	87.991
766.739	174.973
770.602	179.049
774.463	179.392
778.323	284.23
782.18	264.262
786.035	254.145
789.889	240.851
793.741	200.848
797.591	201.403
801.439	103.279
805.285	13.804
809.129	19.14
812.971	109.739
816.812	261.024
820.651	315.305
824.488	450.481
828.323	434.594
832.156	524.633
835.987	653.583
839.817	1002.42
843.644	1360.13
847.47	1819.7
851.294	2258.09
855.116	2760.29
858.936	3054.24
862.755	3287.89
866.571	3984.19
870.386	4356.05
874.199	3843.41
878.01	2613.19
881.82	1810.32
885.627	1487.78
889.433	1236.55
893.236	995.18
897.038	1000.98
900.838	1212.83
904.637	1926.53
908.433	3354.63
912.228	4257.98
916.021	3468.58
919.812	2197.56
923.601	1083.28
927.388	620.478
931.174	295.926
934.958	156.627
938.739	50.938
942.52	9.554
946.298	90.309
950.074	32.143
953.849	28.919
957.622	128.508
961.393	215.154
965.162	304.667
968.93	421.762
972.696	611.664
976.459	776.161
980.222	952.028
983.982	1253.82
987.74	1572.8
991.497	1861.87
995.252	1874.67
999.005	1674.27
1002.76	1531.9
1006.51	1508.72
1010.25	1549.67
1014	1503.27
1017.74	1334.4
1021.49	1282.63
1025.23	1076.11
1028.96	808.886
1032.7	678.96
1036.44	491.34
1040.17	416.033
1043.9	321.038
1047.63	268.341
1051.36	213.932
1055.09	222.799
1058.81	199.947
1062.54	163.382
1066.26	186.138
1069.97	212.332
1073.69	230.068
1077.41	182.347
1081.12	223.369
1084.84	250.957
1088.55	219.002
1092.25	160.005
1095.96	121.803
1099.67	63.413
1103.37	6.443
1107.07	23.422
1110.77	23.137
1114.47	0.579
1118.16	10.823
1121.86	1.875
1125.55	4.114
1129.24	10.753
1132.93	1.249
1136.62	12.16
1140.31	12.347
1143.99	31.725
1147.67	32.411
1151.35	31.724
1155.03	32.675
1158.71	81.276
1162.39	137.55
1166.06	155.521
1169.73	231.208
1173.4	386.62
1177.07	573.764
1180.74	649.65
1184.4	495.284
1188.07	329.589
1191.73	339.795
1195.39	375.07
1199.05	344.347
1202.7	327.083
1206.36	317.327
1210.01	326.152
1213.66	341.169
1217.31	339.52
1220.96	313.023
1224.6	287.563
1228.25	334.365
1231.89	364.951
1235.53	374.161
1239.17	457.068
1242.81	485.013
1246.44	519.799
1250.08	467.201
1253.71	399.518
1257.34	317.53
1260.97	200.465
1264.6	175.521
1268.22	170.469
1271.85	153.287
1275.47	108.618
1279.09	121.59
1282.71	113.404
1286.33	133.954
1289.94	164.475
1293.56	187.046
1297.17	238.609
1300.78	236.18
1304.39	269.999
1307.99	261.336
1311.6	290.099
1315.2	316.796
1318.8	308.289
1322.4	282.617
1326	252.805
1329.6	218.876
1333.19	161.858
1336.79	120.769
1340.38	142.539
1343.97	136.831
1347.56	120.498
1351.14	136.043
1354.73	125.532
1358.31	89.901
1361.89	72.137
1365.47	37.309
1369.05	12.384
1372.63	13.644
1376.2	14.855
1379.78	5.011
1383.35	0.724
1386.92	20.659
1390.49	8.066
1394.05	16.444
1397.62	7.2
1401.18	0.1
1404.74	0.333
1408.3	4.519
1411.86	19.339
1415.42	16.208
1418.97	34.053
1422.53	25.897
1426.08	32.76
1429.63	49.661
1433.18	38.597
1436.72	63.614
1440.27	66.74
1443.81	72.767
1447.36	69.909
1450.89	68.667
1454.43	61.241
1457.97	68.881
1461.51	50.898
1465.04	44.75
1468.57	55.765
1472.1	44.425
1475.63	45.633
1479.16	46.923
1482.68	5.53
1486.21	11.92
1489.73	35.201
1493.25	31.997
1496.77	30.614
1500.29	31.266
1503.8	41.168
1507.32	34.556
1510.83	37.964
1514.34	30.445
