Measurement: Raman, 514 nm, ccw, Raman Data Processed
Mineral: Titanite
Rruff sample: R040033
Ideal chemistry: CaTiSiO_5_
Locality: Brazil
Source: University of Arizona Mineral Museum
Description: Green flattened wedge-shaped single crystals
Measured chemistry: (Ca_0.97_Fe^3+^_0.03_)_Σ=1_(Ti_0.97_Al_0.03_)_Σ=1_Si_1.00_O_5_; Fe^3+^ assigned for charge balance
Pin_id: L00157
Orientation: Laser parallel to -b* (0 -1 0). Fiducial mark perpendicular to laser is parallel to c [0 0 1]
Raman shift (cm-1)	intensity
51.466	0
55.666	374.55
59.863	36.797
64.059	112.055
68.253	452.964
72.445	1618.01
76.635	3002.42
80.823	3837.97
85.009	3977.66
89.193	4205.39
93.375	4203.1
97.554	4395.91
101.732	4873.14
105.908	5243.07
110.082	5385.09
114.254	5575.62
118.424	5511.11
122.592	6018.6
126.758	6770.55
130.922	6777.75
135.083	6968.97
139.243	7601.07
143.401	8132.49
147.557	7794.03
151.711	9525.67
155.863	14316
160.013	18746.5
164.161	17618.7
168.308	14576.1
172.452	13326.7
176.594	13182.8
180.734	13716.5
184.872	13582.8
189.008	13281.7
193.143	14093.2
197.275	15110.3
201.405	16924.8
205.534	18984.9
209.66	19771.4
213.784	19797.3
217.907	20664.6
222.027	21878.9
226.146	22467.3
230.263	22572.9
234.377	22018.6
238.49	22573.8
242.601	26016
246.709	31455.7
250.816	35176.1
254.921	34987.1
259.024	29770
263.125	22942.4
267.224	17486
271.321	14059.5
275.416	12113.4
279.51	11244.7
283.601	10893
287.69	10669.2
291.778	9265.21
295.863	9788.83
299.947	12823
304.029	14658.6
308.108	15755.6
312.186	16743.7
316.262	16623.6
320.336	15062.2
324.408	14386.4
328.478	15769.4
332.546	16970.1
336.612	15750.5
340.677	12808.6
344.739	10054.4
348.799	8260.86
352.858	7247.99
356.915	6334.8
360.969	5834.26
365.022	5085.37
369.073	3761.13
373.122	2556.53
377.169	1214.56
381.215	334.312
385.258	93.511
389.299	481.728
393.339	1079.01
397.376	1602.13
401.412	1654.3
405.446	1402.07
409.478	702.411
413.508	611.493
417.536	2768.86
421.562	4875.19
425.586	5206.44
429.609	4260.58
433.629	3891.59
437.648	4099.45
441.665	4385.14
445.68	4911.64
449.693	6102.94
453.704	9160.06
457.713	14801
461.721	23541.7
465.726	30386.4
469.73	25487
473.731	14257.7
477.731	7284.45
481.729	3846.47
485.725	2410.73
489.72	2055.23
493.712	2067.02
497.703	2254.14
501.691	2488.62
505.678	2662.35
509.663	3305.34
513.646	4117.62
517.627	5021.2
521.607	6191.1
525.584	7681.29
529.56	10447.5
533.534	13465.6
537.506	16370.7
541.476	18893.7
545.444	19791.4
549.41	19682.1
553.375	17417.7
557.337	14626.4
561.298	11274.5
565.257	7977.89
569.214	5616.11
573.17	5442.11
577.123	7096.33
581.075	10189.9
585.024	14468.8
588.972	20523
592.918	27080.4
596.863	35053.2
600.805	43009.3
604.746	49267.6
608.685	50778.2
612.621	48221.4
616.557	43938.5
620.49	37918.5
624.421	33647.6
628.351	28462.6
632.279	24391.1
636.205	21334.9
640.129	18279.9
644.051	15698.9
647.972	13922.2
651.89	12747.3
655.807	11083.2
659.722	10145.5
663.636	9089.71
667.547	8145.93
671.457	7273.71
675.365	6816.31
679.271	6131.73
683.175	5528.71
687.077	4870.5
690.978	4445.79
694.877	3946.25
698.774	3576.69
702.669	3008.14
706.562	2802.96
710.454	2386.42
714.344	2052
718.232	1925.59
722.118	1647.31
726.002	1387.31
729.885	1255.9
733.766	1023.79
737.645	867.931
741.522	682.283
745.397	465.824
749.271	345.517
753.143	294.327
757.013	212.222
760.881	40.163
764.748	55.894
768.613	15.035
772.476	57.298
776.337	67.846
780.196	66.24
784.054	161.018
787.91	154.666
791.764	199.11
795.616	201.901
799.467	116.837
803.316	141.904
807.163	154.523
811.008	102.642
814.851	69.863
818.693	89.886
822.533	97.073
826.371	106.784
830.208	80.377
834.042	91.569
837.875	162.376
841.706	77.246
845.536	79.7
849.363	236.058
853.189	343.689
857.013	379.404
860.836	449.488
864.656	440.811
868.475	563.335
872.292	638.01
876.108	671.766
879.922	681.543
883.733	666.605
887.544	758.716
891.352	652.417
895.159	711.772
898.964	832.319
902.767	1278.38
906.568	1995.56
910.368	2502.68
914.166	2453.25
917.962	1652.38
921.757	1121.24
925.55	787.554
929.341	600.856
933.13	528.41
936.918	507.885
940.703	438.757
944.488	406.255
948.27	409.952
952.051	470.248
955.83	472.953
959.607	499.031
963.383	502.674
967.156	494.494
970.928	515.094
974.699	515.46
978.468	489.092
982.234	565.526
986	550.175
989.763	546.7
993.525	550.114
997.285	575.909
1001.04	612.195
1004.8	786.106
1008.55	887.476
1012.31	1002.5
1016.06	971.281
1019.81	869.684
1023.56	771.09
1027.31	552.644
1031.05	379.497
1034.79	259.677
1038.53	211.094
1042.27	147.822
1046.01	110.829
1049.75	131.122
1053.48	127.728
1057.22	119.651
1060.95	134.902
1064.68	147.507
1068.4	149.499
1072.13	159.918
1075.86	188.82
1079.58	184.143
1083.3	176.872
1087.02	156.893
1090.74	132.128
1094.45	107.693
1098.17	119.005
1101.88	68.761
1105.59	47.647
1109.3	66.157
1113.01	33.64
1116.71	2.712
1120.42	39.762
1124.12	65.415
1127.82	24.918
1131.52	60.113
1135.22	22.46
1138.91	30.835
1142.61	48.747
1146.3	52.094
1149.99	57.282
1153.68	41.875
1157.37	74.227
1161.06	49.338
1164.74	83.746
1168.42	84.059
1172.1	127.724
1175.78	176.52
1179.46	178.942
1183.14	204.419
1186.81	138.694
1190.48	122.199
1194.15	165.313
1197.83	137.743
1201.49	162.662
1205.16	110.165
1208.82	153.623
1212.49	175.663
1216.15	130.632
1219.81	105.954
1223.46	68.121
1227.12	76.498
1230.78	56.521
1234.43	100.125
1238.08	58.184
1241.73	85.678
1245.38	62.679
1249.03	105.162
1252.67	67.49
1256.31	55.177
1259.95	26.189
1263.6	9.977
1267.23	32.757
1270.87	37.023
1274.51	11.165
1278.14	12.318
1281.77	18.089
1285.4	3.921
1289.03	3.563
1292.66	11.697
1296.28	15.713
1299.91	20.882
1303.53	44.093
1307.15	4.01
1310.77	11.545
1314.38	24.168
1318	30.939
1321.61	4.139
1325.23	10.589
1328.84	21.236
1332.45	0.196
1336.06	17.317
1339.66	41.806
1343.27	8.266
1346.87	24.694
1350.47	34.098
1354.07	21.622
1357.67	6.845
1361.26	52.377
1364.86	8.182
1368.45	27.114
1372.04	4.312
1375.63	24.553
1379.22	2.238
1382.81	9.397
1386.39	11.602
1389.98	21.722
1393.56	1.285
1397.14	7.17
1400.72	0.402
1404.3	15.768
1407.87	5.193
1411.45	24.202
1415.02	11.241
1418.59	50.84
1422.16	47.679
1425.73	47.025
1429.29	12.559
1432.86	30.426
1436.42	73.822
1439.98	60.336
1443.54	75.026
1447.1	88.505
1450.66	70.76
1454.21	104.138
1457.77	106.849
1461.32	95.1
1464.87	67.987
1468.42	54.624
1471.96	57.589
1475.51	44.703
1479.06	52.305
1482.6	48.717
1486.14	53.747
1489.68	17.726
1493.22	52.782
1496.75	28.094
1500.29	24.983
1503.82	28.17
1507.35	16.734
1510.88	6.001
1514.41	13.299
1517.94	57.295
1521.46	59.11
