Measurement: Raman, 514 nm, ccw, Raman Data Processed
Mineral: Titanite
Rruff sample: R050124
Ideal chemistry: CaTiSiO_5_
Locality: Capelinha, Minas Gerais, Brazil
Source: Carlos and Paulo Vasconcelos
Description: Yellow tabular crystal
Measured chemistry: Ca_1.00_(Ti_0.93_Al_0.05_Fe^3+^_0.02_)Si_1.00_O_4_(O)_1.00_
Pin_id: M00259
Orientation: Laser parallel to c* (0 0 1). Fiducial mark perpendicular to laser is parallel to a [1 0 0]
Raman shift (cm-1)	intensity
148.691	0
152.858	212.801
157.024	4864.88
161.187	9817.29
165.348	7763.5
169.507	3649.48
173.664	2281.57
177.819	2602.25
181.971	3211.32
186.122	3173.72
190.271	3310.36
194.417	3928.95
198.562	5657.56
202.704	8159.78
206.844	10571.8
210.983	11298.8
215.119	12017.2
219.253	13512.4
223.385	15078.6
227.515	16510
231.643	16779.8
235.769	16471.2
239.893	16840.8
244.014	21352.4
248.134	27668
252.252	32368.6
256.367	31955
260.481	25887.4
264.592	17996.5
268.702	12153
272.809	8990.31
276.915	8608.55
281.018	8904.84
285.119	9187.32
289.218	8695.83
293.316	6463.88
297.411	7160.18
301.504	10833.6
305.595	12254.1
309.684	13251.9
313.771	14767.9
317.856	14705.9
321.939	13226
326.02	13592.5
330.099	15929.7
334.176	17104
338.251	15713.2
342.323	12205.5
346.394	9609.89
350.463	7635.03
354.53	6710.03
358.594	6264.32
362.657	5587.54
366.718	4679.45
370.777	3609.87
374.833	2318.39
378.888	751.627
382.941	231.757
386.992	478.844
391.04	874.204
395.087	1543.62
399.132	1923.31
403.174	1879.08
407.215	1429.77
411.254	466.254
415.29	1191.69
419.325	4000.52
423.358	6456.78
427.389	6700.46
431.417	5798.66
435.444	5545.95
439.469	5906.86
443.492	6552.56
447.512	7152.78
451.531	9222.03
455.548	12930.4
459.563	19807.8
463.576	29874.4
467.587	37390.2
471.596	29515.2
475.603	17219.5
479.608	9543.16
483.611	5965.81
487.612	4539.17
491.611	4232.13
495.608	4343.61
499.603	4522.54
503.596	4727.9
507.587	5181.65
511.577	5993.82
515.564	6724.49
519.549	7793.75
523.533	9361.76
527.514	11468.6
531.493	14484.2
535.471	17888.9
539.447	21275.2
543.42	23843.1
547.392	25231.9
551.362	24333.2
555.329	21325.8
559.295	17710.2
563.259	14056.6
567.221	9818.69
571.181	7155.8
575.139	7579.63
579.095	10196.7
583.049	14094.9
587.002	19402.8
590.952	25920.7
594.9	33758.5
598.847	43736.4
602.792	52254.8
606.734	57484.6
610.675	58672.9
614.614	54912.8
618.55	49833.3
622.485	44894.2
626.418	38985.8
630.349	33517.9
634.279	28941.2
638.206	25336.5
642.131	22153.4
646.055	19643.6
649.976	17438.3
653.896	15572.6
657.814	14179.3
661.729	12889.5
665.643	11738.6
669.555	10453.9
673.465	9388.44
677.373	8541.03
681.28	7830.69
685.184	7023.27
689.087	6236.04
692.987	5721.58
696.886	5152.8
700.783	4851.06
704.677	4291.23
708.57	3835.88
712.462	3320.69
716.351	3067.67
720.238	2748.66
724.124	2513.76
728.007	2111.48
731.889	1976.47
735.769	1684.98
739.647	1479.25
743.523	1276.88
747.397	967.706
751.269	850.482
755.139	675.606
759.008	613.051
762.875	438.79
766.739	334.794
770.602	251.032
774.463	235.473
778.323	99.657
782.18	128.41
786.035	65.1
789.889	17.668
793.741	87.355
797.591	44.585
801.439	82.694
805.285	86.05
809.129	109.489
812.971	147.572
816.812	87.418
820.651	112.761
824.488	152.761
828.323	138.633
832.156	197.583
835.987	175.132
839.817	188.55
843.644	147.825
847.47	188.701
851.294	155.247
855.116	156.411
858.936	48.192
862.755	35.494
866.571	2.367
870.386	49.155
874.199	71.116
878.01	126.462
881.82	181.284
885.627	250.893
889.433	378.203
893.236	440.01
897.038	613.956
900.838	971.083
904.637	1502.13
908.433	2516.73
912.228	3086.18
916.021	2623.26
919.812	1743.8
923.601	1158.88
927.388	886.922
931.174	722.872
934.958	690.587
938.739	632.07
942.52	616.548
946.298	638.434
950.074	707.984
953.849	817.677
957.622	873.176
961.393	884.628
965.162	959.001
968.93	1013.33
972.696	1035.42
976.459	1043.51
980.222	1084.55
983.982	1115.74
987.74	1085.61
991.497	1088.22
995.252	1075.44
999.005	1074.11
1002.76	1115.6
1006.51	1297.98
1010.25	1413.92
1014	1433.77
1017.74	1286.5
1021.49	1157.03
1025.23	949.478
1028.96	715.559
1032.7	476.715
1036.44	388.312
1040.17	323.028
1043.9	256.261
1047.63	223.174
1051.36	228.236
1055.09	263.507
1058.81	255.984
1062.54	268.731
1066.26	267.699
1069.97	271.946
1073.69	283.498
1077.41	271.39
1081.12	261.47
1084.84	241.952
1088.55	221.839
1092.25	214.857
1095.96	214.429
1099.67	201.162
1103.37	174.371
1107.07	150.608
1110.77	156.692
1114.47	154.607
1118.16	155.468
1121.86	125.045
1125.55	120.414
1129.24	117.922
1132.93	109.56
1136.62	106.387
1140.31	115.418
1143.99	125.765
1147.67	89.231
1151.35	117.021
1155.03	113.142
1158.71	109.446
1162.39	128.038
1166.06	109.792
1169.73	125.661
1173.4	137.713
1177.07	172.894
1180.74	183.996
1184.4	160.051
1188.07	131.872
1191.73	130.906
1195.39	142.817
1199.05	106.371
1202.7	105.892
1206.36	92.5
1210.01	124.176
1213.66	118.904
1217.31	93.042
1220.96	103.521
1224.6	77.99
1228.25	81.52
1231.89	73.541
1235.53	81.796
1239.17	71.306
1242.81	80.88
1246.44	81.013
1250.08	87.092
1253.71	61.66
1257.34	50.38
1260.97	36.56
1264.6	30.949
1268.22	46.069
1271.85	16.607
1275.47	12.85
1279.09	10.719
1282.71	14.53
1286.33	10.988
1289.94	9.538
1293.56	25.094
1297.17	8.745
1300.78	19.483
1304.39	16.38
1307.99	11.4
1311.6	30.251
1315.2	31.375
1318.8	45.533
1322.4	31.781
1326	22.93
1329.6	30.021
1333.19	9.079
1336.79	12.112
1340.38	21.122
1343.97	25.097
1347.56	19.063
1351.14	22.976
1354.73	19.923
1358.31	17.843
1361.89	6.748
1365.47	8.362
1369.05	4.485
1372.63	17.574
1376.2	15.58
1379.78	3.652
1383.35	2.106
1386.92	4.106
1390.49	10.626
1394.05	7.127
1397.62	10.877
1401.18	11.019
1404.74	1.258
1408.3	4.906
1411.86	3.755
1415.42	2.641
1418.97	7.536
1422.53	7.461
1426.08	13.313
1429.63	15.083
1433.18	19.075
1436.72	30.979
1440.27	31.875
1443.81	43.848
1447.36	30.326
1450.89	35.651
1454.43	29.056
1457.97	33.966
1461.51	16.275
1465.04	30.966
1468.57	26.472
1472.1	24.432
1475.63	32.126
1479.16	24.878
1482.68	19.132
1486.21	18.373
1489.73	15.736
1493.25	11.332
1496.77	15.446
1500.29	23.576
1503.8	15.945
1507.32	6.577
1510.83	5.816
1514.34	19.113
1517.85	14.113
