Measurement: Raman, 514 nm, ccw, Raman Data Processed
Mineral: Titanite
Rruff sample: R050039
Ideal chemistry: CaTiSiO_5_
Locality: Kingman, Arizona, USA
Source: University of Arizona Mineral Museum
Description: Black fragment from a single crystal
Measured chemistry: (Ca_0.95_Y_0.05_)(Ti_0.85_Al_0.10_Fe^3+^_0.06_)Si_1.00_O_4_(O_0.93_F_0.07_)
Pin_id: L00126
Orientation: Laser parallel to a* (1 0 0). Fiducial mark perpendicular to laser is parallel to b [0 1 0]
Raman shift (cm-1)	intensity
101.492	0
105.664	260.242
109.834	564.934
114.002	688.418
118.168	489.152
122.332	149.43
126.495	56.312
130.655	19.211
134.813	274.482
138.97	726.578
143.124	1108.85
147.277	1615.16
151.427	2005.8
155.576	2400.78
159.723	2520.85
163.867	2735.25
168.01	2823.33
172.151	2874.45
176.29	3207.89
180.427	3463.04
184.562	3779.41
188.696	3996.34
192.827	4193.35
196.956	5280.24
201.084	5878.27
205.209	6603.22
209.333	7015.28
213.454	7741.14
217.574	8496.75
221.692	8901.64
225.808	9096.96
229.922	9333.32
234.034	8759.48
238.144	8764.72
242.252	9358.83
246.359	9821.82
250.463	10353.7
254.566	10324.4
258.666	10134
262.765	9142.52
266.862	8689.72
270.957	8163.81
275.05	7806.75
279.141	7077.89
283.23	6526.41
287.317	5635.26
291.403	5133.22
295.486	4692.87
299.568	4948.56
303.647	5000.65
307.725	5615.67
311.801	6079.07
315.875	6462.96
319.947	6541.76
324.018	6125.46
328.086	5663.65
332.153	5128.66
336.217	4649.76
340.28	4269.88
344.341	4161.99
348.4	3878.42
352.457	4078.72
356.512	4157.18
360.566	4223.4
364.617	4266.84
368.667	3976.1
372.715	3474.1
376.761	3011.32
380.805	2687.74
384.847	2423.36
388.887	2148.17
392.926	1902.15
396.962	1955.29
400.997	2147.6
405.03	2629.08
409.061	3019.75
413.09	3829.62
417.117	4648.7
421.143	4687
425.166	4241.65
429.188	3391.32
433.208	2497.43
437.226	1772.86
441.242	1247.64
445.256	541.806
449.269	295.356
453.28	128.236
457.288	159.701
461.295	369.75
465.3	382.735
469.304	408.96
473.305	488.212
477.305	180.537
481.303	25.053
485.298	29.197
489.293	172.685
493.285	135.546
497.275	17.791
501.264	110.659
505.251	40.213
509.236	181.038
513.219	122.663
517.2	76.584
521.18	109.284
525.157	4.595
529.133	159.375
533.107	313.755
537.079	497.755
541.05	701.399
545.018	814.708
548.985	1047.7
552.95	1120.41
556.913	1912.84
560.875	2825.04
564.834	4317.01
568.792	6478.78
572.748	7980.38
576.702	8481.82
580.654	8973.14
584.605	8934.35
588.553	9085.48
592.5	9056.55
596.445	9497.58
600.389	9308.59
604.33	9419.6
608.27	9949.04
612.208	10103.3
616.144	10403.4
620.078	10268.3
624.011	9809.99
627.941	10059.1
631.87	9898.3
635.798	9683.31
639.723	9235.96
643.647	9189.01
647.568	8727.33
651.488	8706.52
655.407	8344.15
659.323	7885.73
663.238	7593.61
667.151	7254.13
671.062	6953.51
674.971	6694.19
678.879	6288.02
682.785	6120.1
686.689	5817.52
690.591	5705.73
694.491	5284.74
698.39	4804.56
702.287	4595.21
706.182	4336.69
710.076	4149.02
713.968	3820.44
717.857	3646.23
721.746	3451.36
725.632	3186.91
729.517	3083.57
733.4	2571.12
737.281	2329.55
741.16	2248.89
745.038	2109.13
748.913	1770.27
752.788	1682.31
756.66	1315.27
760.531	1389.14
764.399	1223.93
768.267	1019.71
772.132	1006.77
775.996	975.623
779.857	1000.29
783.718	988.142
787.576	1050.3
791.433	1167.48
795.288	1200.55
799.141	1156.06
802.992	995.611
806.842	986.144
810.69	1127.35
814.536	1159.49
818.381	1313.1
822.223	1288.11
826.065	1544.65
829.904	1842.57
833.741	2141.38
837.577	2640.89
841.412	3110.88
845.244	3721.32
849.075	4662.16
852.904	6203.41
856.731	7355.03
860.556	9017.01
864.38	11479.3
868.202	13592
872.023	15274.9
875.842	16518.2
879.658	17381.7
883.474	17375.4
887.287	16749.4
891.099	15263.5
894.909	13807.9
898.718	11312.4
902.524	8787.03
906.329	6561.8
910.133	4586.66
913.934	3201.59
917.734	1916.58
921.532	1191.6
925.329	546.625
929.124	28.374
932.917	263.799
936.708	620.859
940.498	740.635
944.286	623.78
948.072	280.183
951.857	38.989
955.64	310.932
959.421	911.945
963.201	1643.81
966.979	2147.05
970.755	2922.13
974.529	3370.47
978.302	3433.45
982.073	3231.79
985.843	3140.99
989.611	2830.11
993.377	2776.44
997.141	2562.28
1000.9	2247.62
1004.66	2182.45
1008.42	1986.76
1012.18	2000.52
1015.94	1783.75
1019.69	2156.42
1023.45	2268.52
1027.2	2320.05
1030.95	2321
1034.69	2461.35
1038.44	2621.1
1042.18	2690.23
1045.93	2508.75
1049.67	2166.64
1053.41	2103.89
1057.14	1690.5
1060.88	1556.46
1064.62	1561.76
1068.35	1476.4
1072.08	1870.38
1075.81	2373.71
1079.54	2853.61
1083.26	3247.27
1086.99	3141.59
1090.71	3038.66
1094.43	2287.65
1098.15	1516.32
1101.87	876.814
1105.59	386.372
1109.3	47.87
1113.01	31.23
1116.72	161.466
1120.43	83.213
1124.14	116.292
1127.85	170.988
1131.55	32.847
1135.26	225.903
1138.96	548.402
1142.66	930.532
1146.36	1532.32
1150.05	2413.76
1153.75	3764.84
1157.44	5265.51
1161.13	6625.78
1164.82	8705.64
1168.51	10445.1
1172.2	12224.1
1175.88	13192.8
1179.57	13171
1183.25	12448.8
1186.93	11116.2
1190.61	10283.2
1194.28	9689.72
1197.96	9195.88
1201.63	8951.63
1205.31	8477
1208.98	7911.98
1212.64	7596.61
1216.31	7011
1219.98	6645.76
1223.64	7058.33
1227.31	6811.12
1230.97	7108.95
1234.62	8210.14
1238.28	8018.08
1241.94	8127.1
1245.59	7874.81
1249.25	7217.76
1252.9	6691.62
1256.55	5818.77
1260.2	5181.27
1263.84	4708.19
1267.49	4086.01
1271.13	3933.24
1274.77	3654.11
1278.41	3615.27
1282.05	3704.95
1285.69	4182.83
1289.32	3732.21
1292.96	4281.29
1296.59	4368.62
1300.22	4862.94
1303.85	5015.41
1307.48	5277.08
1311.1	5118.3
1314.72	5109.02
1318.35	4889.16
1321.97	4628.56
1325.59	4187.03
1329.21	3744.59
1332.82	3311.58
1336.44	2928.09
1340.05	2454.12
1343.66	2039.8
1347.27	1645.45
1350.88	1231.14
1354.49	918.212
1358.09	609.151
1361.7	509.862
1365.3	120.363
1368.9	119.179
1372.5	50.695
1376.1	64.18
1379.69	161.401
1383.29	95.732
1386.88	98.896
1390.47	11.637
1394.06	114.263
1397.65	284.029
1401.23	463.793
1404.82	633.882
1408.4	984.457
1411.98	1125.67
1415.56	1497.73
1419.14	1840.88
1422.72	1975.36
1426.3	2411.37
1429.87	2648.93
1433.44	2770.63
1437.01	2882.56
1440.58	2873.82
1444.15	2882.9
1447.71	2865.38
1451.28	2976.05
1454.84	2577.89
1458.4	2442.11
1461.96	2006.12
1465.52	1776.07
1469.08	1253.93
1472.64	888.09
1476.19	584.765
1479.74	309.369
1483.29	258.006
1486.84	142.727
1490.39	161.581
1493.94	167.841
1497.48	289.405
