Measurement: Raman, 514 nm, ccw, Raman Data Processed
Mineral: Titanite
Rruff sample: R050124
Ideal chemistry: CaTiSiO_5_
Locality: Capelinha, Minas Gerais, Brazil
Source: Carlos and Paulo Vasconcelos
Description: Yellow tabular crystal
Measured chemistry: Ca_1.00_(Ti_0.93_Al_0.05_Fe^3+^_0.02_)Si_1.00_O_4_(O)_1.00_
Pin_id: M00070
Orientation: Laser parallel to (-1 0 -1). Fiducial mark perpendicular to laser is parallel to b [0 1 0]
Raman shift (cm-1)	intensity
119.251	0
123.422	804.227
127.59	621.742
131.756	156.328
135.92	609.442
140.082	2661.91
144.242	5106.68
148.4	4292.28
152.556	3210.48
156.71	4840.17
160.862	7239.9
165.012	8333.24
169.16	6456.46
173.306	3526.7
177.449	2052.11
181.591	2851.42
185.731	2827.57
189.869	1810.66
194.005	1932.18
198.139	3178.68
202.271	3179.9
206.4	2710.12
210.528	3730.68
214.654	4498.52
218.778	3664.16
222.9	3768.11
227.019	5620.69
231.137	6762.13
235.253	6442.59
239.367	5562.15
243.479	6250.85
247.589	7070.66
251.697	8175.41
255.803	10273.6
259.906	10913.4
264.008	8460.67
268.108	5953.57
272.206	6133.22
276.302	6442.4
280.396	6201.05
284.488	8718.34
288.578	15236.9
292.666	19948.7
296.753	14898.8
300.837	8949.21
304.919	7532.4
308.999	8017.71
313.077	11254.7
317.154	17852.9
321.228	16222.1
325.3	9422.03
329.371	5912.4
333.439	5643.07
337.506	5603.94
341.57	4084.92
345.633	3825.95
349.693	6466.95
353.752	8227.66
357.809	4887.75
361.863	1647.2
365.916	1096.08
369.967	1634.44
374.016	742.244
378.063	740.7
382.108	485.134
386.151	538.747
390.192	20.942
394.231	1128.45
398.269	829.821
402.304	586.861
406.337	602.111
410.369	926.665
414.398	3469.36
418.426	9528.63
422.452	14644.6
426.475	12867.5
430.497	7599.98
434.517	4992.69
438.535	2885.73
442.551	449.231
446.565	456.607
450.577	406.905
454.588	1089.56
458.596	711.416
462.602	1273.26
466.607	5295.54
470.61	8288.11
474.61	7170.9
478.609	5044.15
482.606	4937.48
486.601	5770.96
490.594	5234.48
494.585	3498.07
498.575	2861.72
502.562	3335.46
506.548	3389.3
510.531	2023.25
514.513	1287.33
518.493	2391.57
522.47	3576
526.446	3040.63
530.421	2245.5
534.393	2739.09
538.363	4553.08
542.331	5010.49
546.298	3288.29
550.263	1998.19
554.225	2744.76
558.186	5030.15
562.145	7879.15
566.103	11781
570.058	15229
574.011	16969.3
577.963	17390.3
581.912	16532.2
585.86	17406.2
589.806	20755.7
593.75	26487.2
597.692	32030.2
601.632	35397.5
605.571	39251.7
609.507	42462.7
613.442	42992
617.375	38577.6
621.306	32655.1
625.235	28200.4
629.162	25761.5
633.087	23137.4
637.011	18863.4
640.932	15110.5
644.852	13528.6
648.77	13407.9
652.686	12508.4
656.6	10419.9
660.513	8012.81
664.423	7936.89
668.332	8542.1
672.239	8108.65
676.144	6136.78
680.047	4626.35
683.948	4537.07
687.848	5329.19
691.746	5272.64
695.641	3478.14
699.535	2415.8
703.427	2335.77
707.318	3378.12
711.206	3132.96
715.093	1940.28
718.978	810.053
722.861	991.809
726.742	2164.76
730.621	2688.85
734.499	1383.99
738.374	59.791
742.248	207.338
746.12	1225.39
749.99	1724.22
753.859	873.736
757.725	546.338
761.59	906.125
765.453	254.66
769.314	1296.48
773.174	1209.11
777.031	98.104
780.887	574.873
784.741	180.893
788.593	1535.32
792.443	1942.14
796.291	958.428
800.138	165.381
803.983	520.957
807.826	2219.61
811.667	3606.39
815.507	4076.22
819.344	3224.54
823.18	3168.92
827.014	4482.73
830.847	5830.09
834.677	6383.02
838.506	6018.45
842.333	6245.99
846.158	8078.21
849.981	12938.5
853.803	18022.5
857.623	21676.8
861.441	23039.5
865.257	27572
869.071	35834.5
872.884	42747
876.695	40009.4
880.504	34092.6
884.311	27971.4
888.117	21331.7
891.92	15613.2
895.722	13137.7
899.523	11289.7
903.321	9834.68
907.118	8686.56
910.913	8484.6
914.706	7286.29
918.497	6086.9
922.287	4193.46
926.075	2704.27
929.861	854.273
933.645	90.881
937.428	645.318
941.208	1632.43
944.987	2388.65
948.765	1735.49
952.54	526.84
956.314	238.992
960.086	269.066
963.856	1570.35
967.625	2450.65
971.392	2013.37
975.157	893.992
978.92	599.244
982.682	191.125
986.441	1026.36
990.199	1793.33
993.956	1799.06
997.71	1360.94
1001.46	282.324
1005.21	277.088
1008.96	988.107
1012.71	2547.28
1016.46	3138.54
1020.2	2767.57
1023.94	1575.54
1027.68	481.898
1031.42	52.535
1035.16	1001.8
1038.9	2285.35
1042.63	2397.97
1046.36	1683.76
1050.09	644.873
1053.82	253.721
1057.55	24.633
1061.27	1403.87
1065	2591.85
1068.72	2739.16
1072.44	2046.01
1076.16	813.059
1079.87	18.818
1083.59	701.934
1087.3	1916.94
1091.01	3019.88
1094.72	3162.12
1098.43	2363.67
1102.14	1012.98
1105.84	131.582
1109.55	87.469
1113.25	892.285
1116.94	2275.68
1120.64	2962.56
1124.34	2373.56
1128.03	926.084
1131.73	320.059
1135.42	76.902
1139.11	416.791
1142.8	2245.71
1146.48	2869.82
1150.16	2905.8
1153.85	2082.67
1157.53	1092.26
1161.21	155.107
1164.88	443.111
1168.56	1458.81
1172.23	2888.23
1175.91	3586.28
1179.58	3655.15
1183.25	2484.56
1186.91	970.129
1190.58	21.562
1194.24	948.215
1197.91	1647.6
1201.57	2738.35
1205.23	3534.96
1208.88	3526.74
1212.54	2433.61
1216.19	1349.03
1219.85	471.127
1223.5	695.066
1227.14	1709.8
1230.79	2587.55
1234.44	3825.22
1238.08	3337.95
1241.72	2302.15
1245.37	1389.17
1249	526.73
1252.64	316.57
1256.28	866.439
1259.91	1526.06
1263.54	2868.14
1267.17	3288.43
1270.8	2599.39
1274.43	1432.12
1278.06	448.9
1281.68	242.424
1285.3	205.082
1288.92	973.037
1292.54	1953.82
1296.16	2822.46
1299.78	3095.26
1303.39	2610.52
1307	1903.72
1310.61	468.799
1314.22	56.469
1317.83	63.367
1321.44	530.736
1325.04	1776.3
1328.64	2719.83
1332.24	3274.3
1335.85	3084.27
1339.44	2338.38
1343.04	1220.09
1346.63	71.178
1350.23	344.705
1353.82	100.092
1357.41	942.871
1360.99	2165.1
1364.58	3098.23
1368.17	3474.14
1371.75	3134.4
1375.33	1992.87
1378.91	1168.94
1382.49	507.793
1386.07	74.41
1389.64	374.48
1393.21	1188.24
1396.79	2283.28
1400.36	3073.05
1403.92	3504.92
1407.49	3469.6
1411.06	2851.95
1414.62	1581.67
1418.18	761.129
1421.74	324.244
1425.3	234.729
1428.86	620.322
1432.42	1447.75
1435.97	2518.1
1439.52	3758.35
1443.07	4047.55
1446.62	3570.71
1450.17	3117.92
1453.72	2134.63
1457.26	1053.88
1460.81	433.361
1464.35	24.705
1467.89	400.008
1471.42	1715.98
1474.96	2597.76
1478.49	3276.05
1482.03	3596.64
1485.56	4117.02
1489.09	3667.17
1492.62	3087.9
1496.15	1881.59
1499.67	851.09
1503.2	470.43
1506.72	305.102
1510.24	8.049
