Measurement: Raman, 514 nm, ccw, Raman Data Processed
Mineral: Titanite
Rruff sample: R050124
Ideal chemistry: CaTiSiO_5_
Locality: Capelinha, Minas Gerais, Brazil
Source: Carlos and Paulo Vasconcelos
Description: Yellow tabular crystal
Measured chemistry: Ca_1.00_(Ti_0.93_Al_0.05_Fe^3+^_0.02_)Si_1.00_O_4_(O)_1.00_
Pin_id: M00222
Orientation: Laser parallel to -b* (0 -1 0). Fiducial mark perpendicular to laser is parallel to -c [0 0 -1]
Raman shift (cm-1)	intensity
92.793	0
96.976	531.219
101.157	98.035
105.336	23.779
109.513	494.426
113.688	906.664
117.861	278.579
122.032	58.843
126.201	748.142
130.367	1639.44
134.532	1052.35
138.695	1178.41
142.856	2460.32
147.014	2173.34
151.171	1144.52
155.325	3491.81
159.478	8873.78
163.629	12789.3
167.777	10538.8
171.924	7748.21
176.068	6844.07
180.211	7484.06
184.351	9187.18
188.49	8265.6
192.626	7700.43
196.761	8972.42
200.893	10942.1
205.024	11929.7
209.152	12945.7
213.279	14330.1
217.403	15003
221.526	14564.6
225.646	16164.7
229.765	17673.5
233.881	17401
237.996	15708.3
242.108	16722.9
246.219	22351
250.328	27389.7
254.434	29489
258.539	29330.8
262.641	24553.2
266.742	16856
270.84	12128.9
274.937	10053.9
279.032	9302.38
283.125	8093.45
287.215	8316.57
291.304	8651.26
295.391	6717.18
299.476	7684.02
303.558	11011.5
307.639	12819.2
311.718	13827.1
315.795	14535
319.87	13692.9
323.943	12470.5
328.014	12447.9
332.083	13815.1
336.15	14711.7
340.215	13497.3
344.279	10041.6
348.34	7514.95
352.399	6387.29
356.457	6028.7
360.512	5359.23
364.565	4428.92
368.617	3736.79
372.666	3313.88
376.714	1941.21
380.76	513.799
384.803	28.607
388.845	82.283
392.885	343.56
396.923	1101.89
400.959	1250.99
404.993	1130.83
409.025	797.839
413.055	174.763
417.084	1304.95
421.11	4017.39
425.134	5583.74
429.157	4586.02
433.177	3833.24
437.196	4333.24
441.213	4567.98
445.227	4643.41
449.24	5068.52
453.251	7033.3
457.26	10987.7
461.267	16801.8
465.272	24915.6
469.276	29029
473.277	20662.1
477.276	10304.9
481.274	4947.59
485.27	3001.07
489.263	2617.46
493.255	2672.86
497.245	2373.31
501.233	2488.84
505.219	2975.43
509.203	3717.11
513.186	4172.92
517.166	4539.91
521.145	5694.18
525.121	7467.84
529.096	9181.88
533.069	11236.3
537.04	14010.9
541.009	17505
544.976	19600.8
548.941	18811.4
552.905	17295.9
556.866	15018.9
560.826	12992.2
564.784	9977.84
568.74	6021.43
572.694	4564.29
576.646	5948.74
580.596	8347.46
584.544	11436.9
588.491	14687.2
592.435	20888.1
596.378	28999.8
600.319	37022.3
604.258	42415.5
608.195	44819.5
612.131	46764.3
616.064	45709.8
619.995	39506.3
623.925	32784
627.853	27763.5
631.779	24585.7
635.703	21743.1
639.625	18321
643.546	14794.1
647.464	13091.1
651.381	12366.7
655.296	11545.4
659.209	9962.09
663.12	8344.11
667.029	7498.63
670.937	7317.65
674.842	6835.34
678.746	5900.1
682.648	4914.86
686.548	4609.79
690.447	4427.55
694.343	4210.44
698.238	3618.61
702.13	2847.93
706.021	2508.95
709.91	2396.43
713.798	2382.03
717.683	2062.67
721.567	1547.92
725.448	1398.73
729.328	1323.42
733.206	1297.58
737.083	1057.47
740.957	764.362
744.83	536.751
748.701	483.169
752.57	547.808
756.437	379.647
760.302	225.666
764.166	2.825
768.027	119.092
771.887	132.443
775.745	102.999
779.602	32.894
783.456	103.951
787.309	118.033
791.16	51.563
795.009	26.297
798.856	34.433
802.702	217.268
806.545	212.335
810.387	123.718
814.227	16.986
818.065	43.06
821.902	99.279
825.737	165.586
829.569	123.859
833.401	141.492
837.23	87.476
841.057	39.735
844.883	67.208
848.707	56.849
852.529	15.592
856.35	144.742
860.168	183.414
863.985	145.439
867.8	155.746
871.613	151.317
875.425	170.125
879.234	243.094
883.042	332.266
886.848	359.653
890.653	319.828
894.455	455.763
898.256	650.955
902.055	983.036
905.852	1475.21
909.648	2138.51
913.442	2123.52
917.233	1573.58
921.024	1119.44
924.812	776.479
928.599	605.777
932.384	468.213
936.167	425.327
939.948	367.627
943.728	385.511
947.506	458.67
951.282	500.712
955.056	510.067
958.829	512.976
962.6	494.012
966.369	505.735
970.136	533.572
973.902	580.388
977.666	542.021
981.428	531.181
985.188	460.305
988.947	482.365
992.704	445.226
996.459	528.641
1000.21	680.96
1003.96	685.957
1007.71	702.319
1011.46	736.907
1015.21	817.927
1018.95	803.12
1022.7	772.788
1026.44	578.872
1030.18	338.587
1033.91	189.389
1037.65	117.403
1041.39	117.221
1045.12	138.477
1048.85	117.561
1052.58	112.205
1056.31	78.158
1060.03	109.548
1063.76	124.389
1067.48	150.726
1071.2	155.581
1074.92	210.083
1078.63	173.968
1082.35	175.329
1086.06	176.754
1089.78	148.143
1093.49	105.479
1097.19	118.954
1100.9	107.62
1104.61	70.237
1108.31	62.244
1112.01	30.673
1115.71	47.278
1119.41	48.653
1123.11	29.842
1126.8	90.782
1130.5	99.757
1134.19	21.137
1137.88	45.733
1141.57	10.736
1145.25	16.809
1148.94	16.094
1152.62	58.374
1156.3	23.966
1159.98	58.151
1163.66	31.25
1167.34	72.283
1171.01	45.24
1174.68	120.112
1178.36	92.927
1182.02	146.219
1185.69	102.435
1189.36	88.33
1193.02	49.024
1196.69	33.061
1200.35	61.465
1204.01	58.318
1207.66	81.216
1211.32	71.067
1214.98	89.527
1218.63	40.186
1222.28	41.576
1225.93	43.224
1229.58	33.309
1233.22	34.92
1236.87	71.36
1240.51	72.456
1244.15	91.58
1247.79	41.612
1251.43	58.526
1255.07	19.836
1258.7	10.155
1262.33	66.049
1265.96	71.955
1269.59	95.843
1273.22	106.954
1276.85	102.493
1280.47	34.52
1284.1	1.377
1287.72	38.448
1291.34	5.423
1294.95	60.536
1298.57	0.62
1302.19	51.76
1305.8	97.973
1309.41	58.217
1313.02	89.674
1316.63	86.001
1320.23	83.645
1323.84	64.214
1327.44	23.811
1331.05	12.633
1334.64	27.776
1338.24	50.081
1341.84	30.414
1345.43	41.887
1349.03	38.364
1352.62	0.135
1356.21	19.562
1359.8	13.055
1363.39	7.989
1366.97	25.566
1370.56	10.838
1374.14	24.058
1377.72	36.236
1381.3	45.167
1384.87	17.14
1388.45	4.059
1392.02	2.031
1395.6	24.189
1399.17	7.074
1402.74	25.871
1406.3	17.699
1409.87	12.715
1413.43	31.671
1417	27.926
1420.56	18.22
1424.12	37.542
1427.67	41.265
1431.23	52.853
1434.79	75.867
1438.34	153.343
1441.89	222.849
1445.44	208.563
1448.99	247.351
1452.54	299.237
1456.08	301.55
1459.62	296.144
1463.17	258.234
1466.71	203.397
1470.24	126.599
1473.78	120.463
1477.32	138.917
1480.85	153.189
1484.38	73.832
1487.91	70.343
1491.44	67
1494.97	52.597
1498.5	86.985
1502.02	66.89
1505.54	50.35
1509.07	66.842
1512.59	31.095
1516.1	22.226
