Measurement: Raman, 514 nm, ccw, Raman Data Processed
Mineral: Titanite
Rruff sample: R040033
Ideal chemistry: CaTiSiO_5_
Locality: Brazil
Source: University of Arizona Mineral Museum
Description: Green flattened wedge-shaped single crystals
Measured chemistry: (Ca_0.97_Fe^3+^_0.03_)_Σ=1_(Ti_0.97_Al_0.03_)_Σ=1_Si_1.00_O_5_; Fe^3+^ assigned for charge balance
Pin_id: L00108
Orientation: Laser parallel to c [0 0 1]. Fiducial mark perpendicular to laser is parallel to b* (0 1 0)
Raman shift (cm-1)	intensity
51.466	0
55.666	381.653
59.863	40.027
64.059	112.669
68.253	489.723
72.445	1633.29
76.635	2956.75
80.823	3732.6
85.009	4022.47
89.193	4463.02
93.375	4781.01
97.554	5093.65
101.732	5792.46
105.908	6329.23
110.082	6786.21
114.254	6932.8
118.424	6671.4
122.592	7006.02
126.758	7554.13
130.922	7481.47
135.083	7202.82
139.243	7138.59
143.401	7386.62
147.557	7667.19
151.711	9460.43
155.863	14089.4
160.013	18719.5
164.161	19041.3
168.308	15882.1
172.452	13506.3
176.594	12589.8
180.734	12792.8
184.872	12725.4
189.008	12737.6
193.143	13866.2
197.275	14951.4
201.405	16799
205.534	18921
209.66	20109.5
213.784	20611.3
217.907	21363.1
222.027	22778.4
226.146	23587.5
230.263	23801.5
234.377	23096.7
238.49	23292.7
242.601	25574.9
246.709	29582.1
250.816	32525.2
254.921	31895.1
259.024	27269.9
263.125	22031.2
267.224	17335.7
271.321	13628.9
275.416	11644.7
279.51	10510.7
283.601	9862.77
287.69	9575.71
291.778	8629.38
295.863	9100.66
299.947	11487.4
304.029	13640.6
308.108	15278.1
312.186	16540.6
316.262	16713.9
320.336	15227.8
324.408	14262.4
328.478	14992.6
332.546	15602.5
336.612	14946
340.677	12348.2
344.739	9667.03
348.799	7790.51
352.858	6800.62
356.915	6303.36
360.969	5655.74
365.022	4727.75
369.073	3526.38
373.122	2160.63
377.169	914.487
381.215	27.818
385.258	301.395
389.299	594.055
393.339	1105.46
397.376	1548.96
401.412	1591.39
405.446	1310.15
409.478	649.167
413.508	791.556
417.536	3250.99
421.562	5677.38
425.586	6323.69
429.609	5138.89
433.629	4416.96
437.648	4494.87
441.665	4526.62
445.68	4941.18
449.693	5854.55
453.704	8095.72
457.713	12843.7
461.721	19790.5
465.726	25972.3
469.73	23874.9
473.731	14668.5
477.731	7725.07
481.729	3950.68
485.725	2316.33
489.72	1971.15
493.712	2031.23
497.703	2274.68
501.691	2390.62
505.678	2759.03
509.663	3346.98
513.646	4194.39
517.627	5059.27
521.607	6027.56
525.584	7491.23
529.56	10240.2
533.534	13248.4
537.506	16178.7
541.476	18516.4
545.444	19576.8
549.41	19681.2
553.375	17526.5
557.337	14477.5
561.298	11492.8
565.257	8106.21
569.214	5970.3
573.17	6132.08
577.123	8012.1
581.075	11686.5
585.024	16364.4
588.972	22620.6
592.918	29287.2
596.863	36748.1
600.805	43557.4
604.746	48334.1
608.685	48812.1
612.621	45584.7
616.557	41897.9
620.49	36464.7
624.421	32494.9
628.351	27408.6
632.279	23775.4
636.205	21145
640.129	18409.1
644.051	15965.2
647.972	14040.9
651.89	12782.1
655.807	11383.6
659.722	10385.6
663.636	9377.1
667.547	8374.15
671.457	7604.31
675.365	7078.27
679.271	6481.95
683.175	5840.01
687.077	5123.3
690.978	4818.84
694.877	4303.34
698.774	3899.43
702.669	3374.2
706.562	3059.64
710.454	2693.9
714.344	2334.61
718.232	2101.37
722.118	1818.16
726.002	1681.13
729.885	1401.43
733.766	1262.06
737.645	1053.97
741.522	841.131
745.397	607.509
749.271	476.08
753.143	399.811
757.013	247.667
760.881	123.614
764.748	37.383
768.613	34.389
772.476	69.04
776.337	98.946
780.196	68.681
784.054	86.988
787.91	74.735
791.764	92.271
795.616	137.027
799.467	144.839
803.316	122.902
807.163	197.094
811.008	191.38
814.851	157.637
818.693	232.173
822.533	128.304
826.371	133.487
830.208	75.48
834.042	62.183
837.875	36.26
841.706	47.508
845.536	148.324
849.363	277.196
853.189	448.308
857.013	509.726
860.836	518.418
864.656	473.334
868.475	549.411
872.292	627.588
876.108	654.801
879.922	759.992
883.733	833.124
887.544	868.408
891.352	792.367
895.159	711.797
898.964	792.618
902.767	982.782
906.568	1349.97
910.368	1720.13
914.166	1754.73
917.962	1316.22
921.757	897.297
925.55	643.246
929.341	517.004
933.13	490.218
936.918	431.425
940.703	450.043
944.488	423.902
948.27	475.77
952.051	502.166
955.83	555.068
959.607	566.611
963.383	579.802
967.156	595.111
970.928	585.322
974.699	613.819
978.468	619.34
982.234	618.946
986	615.849
989.763	612.684
993.525	593.779
997.285	650.371
1001.04	751.488
1004.8	883.331
1008.55	1083.43
1012.31	1206.45
1016.06	1234
1019.81	1169.83
1023.56	1083.73
1027.31	838.885
1031.05	575.29
1034.79	419.961
1038.53	310.909
1042.27	236.131
1046.01	238.624
1049.75	181.394
1053.48	160.438
1057.22	152.767
1060.95	153.396
1064.68	156.343
1068.4	157.63
1072.13	163.292
1075.86	161.848
1079.58	160.618
1083.3	181.482
1087.02	228.566
1090.74	199.602
1094.45	198.793
1098.17	127.567
1101.88	80.994
1105.59	69.825
1109.3	53.164
1113.01	31.321
1116.71	18.826
1120.42	13.033
1124.12	21.253
1127.82	0.92
1131.52	2.146
1135.22	20.215
1138.91	5.902
1142.61	15.622
1146.3	4.27
1149.99	13.642
1153.68	19.788
1157.37	34.694
1161.06	66.384
1164.74	80.88
1168.42	104.273
1172.1	151.352
1175.78	225.35
1179.46	306.202
1183.14	279.916
1186.81	220.016
1190.48	156.199
1194.15	159.025
1197.83	166.872
1201.49	173.382
1205.16	199.767
1208.82	220.031
1212.49	240.651
1216.15	194.178
1219.81	150.105
1223.46	126.446
1227.12	108.14
1230.78	118.149
1234.43	139.771
1238.08	140.58
1241.73	158.308
1245.38	195.947
1249.03	203.015
1252.67	145.148
1256.31	107.542
1259.95	96.584
1263.6	58.973
1267.23	64.4
1270.87	49.178
1274.51	34.103
1278.14	17.272
1281.77	4.528
1285.4	17.787
1289.03	17.839
1292.66	38.142
1296.28	34.564
1299.91	37.444
1303.53	51.526
1307.15	70.437
1310.77	59.49
1314.38	55.755
1318	67.98
1321.61	85.465
1325.23	82.002
1328.84	61.906
1332.45	64.719
1336.06	50.489
1339.66	45.221
1343.27	54.919
1346.87	51.714
1350.47	55.658
1354.07	38.252
1357.67	37.224
1361.26	19.944
1364.86	15.472
1368.45	8.912
1372.04	9.749
1375.63	6.553
1379.22	14.488
1382.81	4.915
1386.39	11.17
1389.98	4.487
1393.56	7.343
1397.14	8.28
1400.72	8.303
1404.3	10.532
1407.87	2.257
1411.45	1.466
1415.02	14.258
1418.59	19.082
1422.16	32.911
1425.73	20.753
1429.29	39.627
1432.86	45.547
1436.42	40.52
1439.98	61.549
1443.54	58.52
1447.1	59.6
1450.66	57.106
1454.21	61.347
1457.77	65.053
1461.32	49.407
1464.87	52.232
1468.42	21.273
1471.96	45.913
1475.51	27.442
1479.06	43.757
1482.6	34.819
1486.14	16.063
1489.68	1.836
1493.22	18.947
1496.75	31.979
1500.29	14.102
1503.82	34.157
1507.35	14.388
1510.88	26.14
1514.41	8.871
1517.94	10.882
1521.46	7.83
