Measurement: Raman, 514 nm, ccw, Raman Data Processed
Mineral: Titanite
Rruff sample: R050114
Ideal chemistry: CaTiSiO_5_
Locality: Isthak Valley Iskardu, Northern Areas Gilgit, Pakistan
Source: Syed Shah
Description: Yellowish-brown fragment
Measured chemistry: (Ca_0.99_Na_0.01_)(Ti_0.96_Al_0.03_Fe^3+^_0.01_)Si_1.00_O_4_(O_0.95_F_0.05_)
Pin_id: L00251
Orientation: Laser parallel to b* (0 1 0). Fiducial mark perpendicular to laser is parallel to -c [0 0 -1]
Raman shift (cm-1)	intensity
47.49	0
51.717	123.733
55.942	261.929
60.165	394.263
64.386	624.604
68.604	313.351
72.82	47.668
77.034	132.606
81.246	129.674
85.455	25.529
89.663	636.365
93.868	1782.4
98.07	3126.26
102.271	4637.93
106.469	5928.85
110.665	7176.83
114.859	8150.35
119.05	8907.29
123.24	9990.83
127.427	11010.3
131.612	11045.2
135.794	10923.1
139.975	11175.6
144.153	11663.5
148.329	12839.4
152.503	16041.2
156.674	21792.8
160.843	25634.5
165.011	23896.7
169.175	19829.7
173.338	18073.7
177.499	17828.8
181.657	17925.2
185.813	17742.9
189.967	18011.9
194.119	19342.4
198.268	21204.4
202.415	23297.8
206.561	25312.8
210.703	26069.3
214.844	26249.8
218.983	27104.6
223.119	28188.3
227.253	29105.6
231.385	28880.9
235.515	28056
239.643	28725
243.768	32515.3
247.891	35881.8
252.012	36702.6
256.131	33681
260.248	27472
264.363	21355.6
268.475	17321.4
272.585	14539.5
276.693	12919.5
280.799	12441.5
284.903	12065.3
289.005	11250.9
293.104	10188.1
297.201	11767
301.296	14287.4
305.389	15079.4
309.48	15632.8
313.569	16357.4
317.655	16223.1
321.74	15090
325.822	15497.9
329.902	16606.9
333.98	17147.2
338.056	15308.6
342.129	12401.1
346.201	10014.9
350.27	8509.89
354.337	7646.07
358.402	7123.47
362.465	6552.08
366.526	5591.92
370.585	4292.98
374.642	2881.26
378.696	1519.8
382.748	526.885
386.799	101.572
390.847	542.584
394.893	1030.36
398.936	1351.75
402.978	1473.25
407.018	1109.03
411.055	404.752
415.091	842.2
419.124	3347.67
423.155	5783.71
427.184	5621.31
431.211	4460.45
435.236	4021.13
439.259	4103.34
443.28	4627.07
447.298	5442.31
451.315	7099.09
455.329	10227.5
459.341	15667.5
463.352	23099.3
467.36	28273
471.366	23738.6
475.37	13786.1
479.372	6755.68
483.371	3097.1
487.369	1646.39
491.365	1493.6
495.358	1596.8
499.35	1779.11
503.339	2204.57
507.326	2867.12
511.311	3442.8
515.295	4350.53
519.276	5530.23
523.255	6901.82
527.232	9115.17
531.207	11750.2
535.179	15146.9
539.15	17605
543.119	19574.5
547.086	20735.1
551.05	19381.4
555.013	17031.9
558.973	13872.2
562.932	10570.1
566.888	7234.78
570.842	5936.75
574.795	7223.27
578.745	10256.9
582.693	14962.2
586.639	20419.3
590.583	26948.1
594.525	34358.5
598.465	40440.6
602.403	44244.3
606.339	45139.6
610.273	42709.1
614.205	38264.1
618.135	33649.7
622.063	28594.7
625.989	24613.1
629.912	21445.5
633.834	18999
637.754	16534.3
641.671	14477.9
645.587	12814.8
649.501	11308.5
653.412	10190.9
657.322	9265.08
661.23	8272.52
665.135	7434.67
669.039	6796.3
672.94	6289.69
676.84	5563.61
680.738	4983.75
684.633	4494
688.527	4104.81
692.418	3555.83
696.308	3251.02
700.195	2959.19
704.081	2571.96
707.964	2377.17
711.846	1973.29
715.726	1689.3
719.603	1526.75
723.479	1319.46
727.352	1090.56
731.224	929.408
735.094	829.84
738.961	655.671
742.827	525.289
746.691	400.477
750.552	250.887
754.412	196.573
758.27	120.132
762.125	55.36
765.979	117.03
769.831	142.051
773.681	183.675
777.529	183.013
781.375	151.313
785.219	209.993
789.06	159.79
792.901	116.213
796.739	67.822
800.575	100.129
804.409	127.433
808.241	181.805
812.071	91.935
815.899	124.919
819.726	141.9
823.55	83.234
827.372	35.241
831.193	46.245
835.011	70.234
838.828	111.841
842.642	228.309
846.455	304.719
850.266	519.255
854.075	734.969
857.881	1058.85
861.686	1337.86
865.489	2004.97
869.29	2866.13
873.089	3338.28
876.886	3553.38
880.682	4021.37
884.475	4514.31
888.266	4281.78
892.056	3552.77
895.843	2623.65
899.629	2308.79
903.413	2553.7
907.194	3268.93
910.974	3703.86
914.752	3198.18
918.528	2189.06
922.302	1456.31
926.074	987.769
929.844	722.85
933.613	584.498
937.379	467.127
941.144	404.148
944.906	375.003
948.667	348.815
952.426	321.755
956.183	395.756
959.938	406.462
963.691	430.681
967.442	471.332
971.191	521.986
974.939	539.758
978.684	446.459
982.428	439.146
986.169	435.477
989.909	428.654
993.647	418.144
997.383	463.924
1001.12	588.142
1004.85	741.9
1008.58	911.039
1012.31	976.952
1016.03	981.132
1019.76	922.591
1023.48	830.342
1027.2	628.398
1030.92	410.775
1034.64	309.486
1038.36	258.534
1042.07	206.918
1045.78	161.633
1049.49	106.672
1053.2	106.036
1056.9	110.042
1060.61	110.81
1064.31	115.276
1068.01	145.227
1071.71	169.753
1075.41	307.028
1079.1	509.474
1082.79	728.289
1086.48	914.247
1090.17	896.942
1093.86	690.954
1097.55	410.526
1101.23	272.538
1104.91	224.831
1108.59	166.034
1112.27	113.581
1115.95	66.542
1119.62	69.171
1123.3	41.557
1126.97	33.277
1130.63	23.753
1134.3	17.734
1137.97	33.669
1141.63	11.745
1145.29	1.913
1148.95	17.729
1152.61	56.186
1156.27	162.482
1159.92	259.647
1163.57	376.693
1167.22	676.627
1170.87	1088.45
1174.52	1573.18
1178.16	1587.82
1181.81	1274.07
1185.45	950.6
1189.09	825.387
1192.73	939.987
1196.36	989.956
1200	945.383
1203.63	987.308
1207.26	1009.26
1210.89	1006.67
1214.52	761.725
1218.14	570.313
1221.77	526.45
1225.39	550.062
1229.01	577.037
1232.62	587.11
1236.24	574.736
1239.86	574.383
1243.47	539.665
1247.08	467.584
1250.69	354.141
1254.3	275.727
1257.9	225.768
1261.5	186.542
1265.11	157.289
1268.71	149.579
1272.3	137.496
1275.9	102.737
1279.49	116.15
1283.09	102.375
1286.68	132.529
1290.27	174.564
1293.86	198.193
1297.44	230.037
1301.03	222.82
1304.61	228.79
1308.19	201.592
1311.77	192.081
1315.34	200.2
1318.92	190.059
1322.49	188.785
1326.06	196.414
1329.63	226.964
1333.2	220.43
1336.77	253.803
1340.33	311.081
1343.89	324.309
1347.46	307.461
1351.02	260.799
1354.57	200.333
1358.13	133.51
1361.68	117.47
1365.23	78.141
1368.79	30.165
1372.33	5.273
1375.88	20.839
1379.43	24.29
1382.97	28.044
1386.51	31.145
1390.05	33.459
1393.59	7.831
1397.13	14.182
1400.66	21.611
1404.19	28.559
1407.72	72.574
1411.25	83.571
1414.78	86.538
1418.31	148.516
1421.83	162.541
1425.36	225.631
1428.88	299.363
1432.39	358.106
1435.91	384.497
1439.43	473.011
1442.94	478.695
1446.45	462.179
1449.96	481.967
1453.47	413.742
1456.98	366.746
1460.48	334
1463.99	257.773
1467.49	237.342
1470.99	152.403
1474.49	137.924
1477.99	97.43
1481.48	74.977
1484.97	56.965
1488.46	39.767
1491.95	10.477
1495.44	37.64
1498.93	28.266
1502.41	25.375
1505.9	32.846
1509.38	17.148
1512.86	0.169
