Measurement: Raman, 514 nm, ccw, Raman Data Processed
Mineral: Titanite
Rruff sample: R050039
Ideal chemistry: CaTiSiO_5_
Locality: Kingman, Arizona, USA
Source: University of Arizona Mineral Museum
Description: Black fragment from a single crystal
Measured chemistry: (Ca_0.95_Y_0.05_)(Ti_0.85_Al_0.10_Fe^3+^_0.06_)Si_1.00_O_4_(O_0.93_F_0.07_)
Pin_id: L00457
Orientation: Laser parallel to -b* (0 -1 0). Fiducial mark perpendicular to laser is parallel to -c [0 0 -1]
Raman shift (cm-1)	intensity
81.728	0
85.929	1702.71
90.128	3271.13
94.324	2748.02
98.519	920.509
102.712	228.74
106.902	292.286
111.09	584.318
115.277	587.152
119.461	0.647
123.643	84.24
127.823	185.579
132.001	216.854
136.176	9.627
140.35	314.878
144.521	525.922
148.691	802.979
152.858	1025.71
157.024	1214.51
161.187	1359.71
165.348	1440.66
169.507	1643.97
173.664	1679.28
177.819	1936.84
181.971	2196.58
186.122	2560.61
190.271	2881.89
194.417	3347.1
198.562	4144.88
202.704	4745.19
206.844	5417.96
210.983	6443.12
215.119	7420.58
219.253	8290.86
223.385	8986.72
227.515	8749.88
231.643	8139.56
235.769	7443.3
239.893	7268.59
244.014	7264.76
248.134	6936.13
252.252	7206.51
256.367	6933.9
260.481	6615.12
264.592	6338.78
268.702	6214.55
272.809	5780.45
276.915	5707.82
281.018	5147.77
285.119	4829.14
289.218	4606.56
293.316	4157.56
297.411	3540.35
301.504	3576.75
305.595	3658.33
309.684	3911.42
313.771	3975.94
317.856	3981.81
321.939	4098.94
326.02	3827.24
330.099	3676.63
334.176	3347.06
338.251	3288.49
342.323	3110.91
346.394	3214.27
350.463	3575.38
354.53	3651.6
358.594	4222.86
362.657	4281.39
366.718	4370.16
370.777	4008.34
374.833	3607.17
378.888	3088.95
382.941	2640.74
386.992	2628.58
391.04	2516.64
395.087	2387.02
399.132	2587.49
403.174	2688
407.215	2838.53
411.254	3539.13
415.29	3840.24
419.325	4041.78
423.358	4053.7
427.389	3755.94
431.417	3118.47
435.444	3051.28
439.469	2514.35
443.492	2347.66
447.512	2011.17
451.531	2124.94
455.548	2049.08
459.563	2293.66
463.576	2398.49
467.587	2353.39
471.596	2828.32
475.603	2723.3
479.608	2608.28
483.611	2243.22
487.612	1928.09
491.611	1692.88
495.608	1137.56
499.603	712.12
503.596	496.542
507.587	220.809
511.577	24.77
515.564	272.159
519.549	230.891
523.533	301.865
527.514	455.543
531.493	312.091
535.471	261.153
539.447	132.48
543.42	204.516
547.392	100.704
551.362	536.339
555.329	891.684
559.295	1596.78
563.259	2721.62
567.221	3656.21
571.181	4090.57
575.139	4834.68
579.095	4658.56
583.049	4692.21
587.002	4482.02
590.952	4288.86
594.9	4151.88
598.847	4064.7
602.792	4097.33
606.734	4133.25
610.675	4455.52
614.614	4758.26
618.55	4535.37
622.485	4838.24
626.418	4869.94
630.349	5035.28
634.279	5127.06
638.206	5260.16
642.131	4880.97
646.055	5021.6
649.976	5152.3
653.896	4942.62
657.814	4822.79
661.729	4592.82
665.643	4402.35
669.555	4359.76
673.465	3980.51
677.373	3846.84
681.28	3369.88
685.184	3568.18
689.087	3056.54
692.987	2779.25
696.886	2484.36
700.783	2337.77
704.677	2397.6
708.57	1975.34
712.462	1996.5
716.351	1887.96
720.238	1509.74
724.124	1551.97
728.007	1144.77
731.889	988.398
735.769	892.982
739.647	728.53
743.523	455.117
747.397	342.568
751.269	71.082
755.139	300.677
759.008	371.034
762.875	81.753
766.739	127.165
770.602	125.884
774.463	14.427
778.323	57.371
782.18	60.438
786.035	62.107
789.889	104.986
793.741	38.269
797.591	61.961
801.439	26.094
805.285	220.668
809.129	565.683
812.971	821.153
816.812	687.081
820.651	993.473
824.488	1300.46
828.323	1758.43
832.156	2427.77
835.987	2948.66
839.817	3921.32
843.644	5145.74
847.47	6811.7
851.294	8099.09
855.116	10297.5
858.936	13036.6
862.755	16196.2
866.571	19586.3
870.386	23136.9
874.199	26190.9
878.01	29054.3
881.82	30341.5
885.627	30852.8
889.433	30786.9
893.236	29262.6
897.038	27232
900.838	24056.2
904.637	20468.6
908.433	16682.2
912.228	12560.6
916.021	10131.4
919.812	7783.03
923.601	5777.07
927.388	4279.23
931.174	3023.26
934.958	2057.14
938.739	1329.47
942.52	1032.17
946.298	667.779
950.074	453.557
953.849	349.501
957.622	555.384
961.393	511.643
965.162	878.048
968.93	1254.59
972.696	1471.27
976.459	1658.06
980.222	1664.96
983.982	1421.94
987.74	1248.99
991.497	1026.08
995.252	953.176
999.005	900.261
1002.76	767.31
1006.51	784.303
1010.25	581.229
1014	478.075
1017.74	254.831
1021.49	201.488
1025.23	7.993
1028.96	35.941
1032.7	210.585
1036.44	116.557
1040.17	133.807
1043.9	92.52
1047.63	72.603
1051.36	253.894
1055.09	186.854
1058.81	28.755
1062.54	283.766
1066.26	858.664
1069.97	1593.45
1073.69	2648.31
1077.41	3703.37
1081.12	4848.65
1084.84	5494.5
1088.55	6090.96
1092.25	5507.92
1095.96	4505.2
1099.67	3642.72
1103.37	2750.29
1107.07	2067.78
1110.77	1655.13
1114.47	1472.29
1118.16	1239.22
1121.86	1135.88
1125.55	1252.28
1129.24	1338.42
1132.93	1444.28
1136.62	1519.86
1140.31	1785.18
1143.99	2330.22
1147.67	3104.98
1151.35	4151.09
1155.03	5263.67
1158.71	6987.56
1162.39	8431.12
1166.06	10354.3
1169.73	11987.1
1173.4	13323.6
1177.07	13630.5
1180.74	13285.4
1184.4	12173.1
1188.07	11201.1
1191.73	10141
1195.39	9605.92
1199.05	9111.85
1202.7	8698.11
1206.36	8221.87
1210.01	7753.22
1213.66	7056.75
1217.31	6632.82
1220.96	6131.68
1224.6	6093.56
1228.25	6408.84
1231.89	6413.89
1235.53	6490.77
1239.17	6627.76
1242.81	6360.65
1246.44	5876.76
1250.08	5297.96
1253.71	4493.83
1257.34	4055.43
1260.97	3433.13
1264.6	2928.64
1268.22	2543.31
1271.85	2387.81
1275.47	1962.13
1279.09	1736.3
1282.71	1550.31
1286.33	1634.18
1289.94	1497.93
1293.56	1641.48
1297.17	1774.64
1300.78	2046.65
1304.39	1935.84
1307.99	2031.81
1311.6	2165.3
1315.2	2127.22
1318.8	2078.12
1322.4	2068.36
1326	1898.07
1329.6	1797.34
1333.19	1685.95
1336.79	1503.82
1340.38	1210.94
1343.97	1099.62
1347.56	789.663
1351.14	522.825
1354.73	512.087
1358.31	406.424
1361.89	134.461
1365.47	56.976
1369.05	113.475
1372.63	135.968
1376.2	203.458
1379.78	88.853
1383.35	86.32
1386.92	124.874
1390.49	45.945
1394.05	266.376
1397.62	396.432
1401.18	746.095
1404.74	855.333
1408.3	1284.13
1411.86	1592.61
1415.42	1891.13
1418.97	2149.98
1422.53	2539.29
1426.08	2819.19
1429.63	3239.86
1433.18	3339.38
1436.72	3724.94
1440.27	3762.57
1443.81	3830.3
1447.36	3457.2
1450.89	3336.57
1454.43	3017.23
1457.97	2741.95
1461.51	2400.56
1465.04	1979.42
1468.57	1608.51
1472.1	1175.25
1475.63	946.355
1479.16	553.323
1482.68	325.911
1486.21	268.792
1489.73	201.849
1493.25	100.155
1496.77	110.209
1500.29	225.541
1503.8	273.807
1507.32	100.339
1510.83	98.461
1514.34	0
