Measurement: Raman, 514 nm, ccw, Raman Data Processed
Mineral: Titanite
Rruff sample: R050124
Ideal chemistry: CaTiSiO_5_
Locality: Capelinha, Minas Gerais, Brazil
Source: Carlos and Paulo Vasconcelos
Description: Yellow tabular crystal
Measured chemistry: Ca_1.00_(Ti_0.93_Al_0.05_Fe^3+^_0.02_)Si_1.00_O_4_(O)_1.00_
Pin_id: M00396
Orientation: Laser parallel to -a* (-1 0 0). Fiducial mark perpendicular to laser is parallel to -b [0 -1 0]
Raman shift (cm-1)	intensity
152.858	0
157.024	7.116
161.187	377.594
165.348	513.659
169.507	1092.36
173.664	2128.96
177.819	2967.07
181.971	3596.07
186.122	4000.05
190.271	3560.61
194.417	3471.28
198.562	4538.32
202.704	5116.56
206.844	4553.07
210.983	4032.85
215.119	4063.16
219.253	4583.56
223.385	5221.99
227.515	5438.89
231.643	5758.16
235.769	5545.58
239.893	4797.43
244.014	6055.66
248.134	8181.81
252.252	9006.67
256.367	8170.7
260.481	6574.16
264.592	4558.96
268.702	2771.64
272.809	1537.05
276.915	1007.44
281.018	1254.05
285.119	2115.95
289.218	3525.06
293.316	3821.31
297.411	3147.4
301.504	3916.79
305.595	6848.73
309.684	14526.1
313.771	31647.3
317.856	40673.7
321.939	27742.2
326.02	17094
330.099	12443.2
334.176	9997.43
338.251	8075.45
342.323	6446.3
346.394	5829.3
350.463	5923.96
354.53	5019.83
358.594	3216.62
362.657	2052.05
366.718	963.962
370.777	367.208
374.833	11.373
378.888	391.547
382.941	591.24
386.992	514.744
391.04	4.195
395.087	479.287
399.132	1107.8
403.174	2512.81
407.215	4905.39
411.254	9705.58
415.29	18415.4
419.325	31974.8
423.358	37174
427.389	26202.7
431.417	13408.8
435.444	6540.99
439.469	3166.23
443.492	1394.41
447.512	167.583
451.531	416.447
455.548	548.651
459.563	386.539
463.576	233.882
467.587	199.251
471.596	727.993
475.603	1679.78
479.608	2723.91
483.611	3525.52
487.612	4306.44
491.611	4677.55
495.608	4858.78
499.603	4270.08
503.596	3641.43
507.587	3402.8
511.577	3744.19
515.564	3805.56
519.549	3976.93
523.533	4528.3
527.514	5389.66
531.493	6801.02
535.471	8054.39
539.447	9165.55
543.42	9643.11
547.392	9806.91
551.362	8966.41
555.329	7301.67
559.295	5733.87
563.259	5216.31
567.221	5699.03
571.181	6732.02
575.139	7845.31
579.095	10138.9
583.049	13242.8
587.002	17517.1
590.952	22281.8
594.9	28546.8
598.847	37062.5
602.792	45122.1
606.734	50189.5
610.675	49442.8
614.614	46218.2
618.55	42142.8
622.485	38208.4
626.418	32531.5
630.349	27263.6
634.279	23215.9
638.206	20535.5
642.131	17929.5
646.055	15694.3
649.976	13610.4
653.896	12507.7
657.814	11686.2
661.729	10495.7
665.643	9066.04
669.555	8087.18
673.465	7479.13
677.373	6931.91
681.28	6325.52
685.184	5449.95
689.087	4795.23
692.987	4531.43
696.886	4249.13
700.783	3869.07
704.677	3241.34
708.57	2755.51
712.462	2500.8
716.351	2411.94
720.238	2187.93
724.124	1764.75
728.007	1374.41
731.889	1293.9
735.769	1186.21
739.647	1035.35
743.523	604.311
747.397	330.093
751.269	150.722
755.139	73.269
759.008	59.742
762.875	115.959
766.739	123.481
770.602	202.845
774.463	141.914
778.323	37.049
782.18	79.995
786.035	98.531
789.889	171.763
793.741	13.773
797.591	195.771
801.439	473.276
805.285	781.14
809.129	1144.11
812.971	1713.68
816.812	2525.51
820.651	3332.3
824.488	3930.18
828.323	4541.55
832.156	5233.37
835.987	6195.62
839.817	7898.28
843.644	9681.32
847.47	11364.7
851.294	13368.4
855.116	15192.5
858.936	17086.7
862.755	19681.1
866.571	24055.7
870.386	26380.4
874.199	21775.3
878.01	14280.2
881.82	9415.19
885.627	7000.23
889.433	5475.31
893.236	4144.4
897.038	3883.03
900.838	4774.08
904.637	6934.78
908.433	10493.2
912.228	12158.4
916.021	8939.15
919.812	5131.27
923.601	2602.81
927.388	1477.48
931.174	854.836
934.958	426.916
938.739	154.072
942.52	119.966
946.298	141.966
950.074	206.295
953.849	95.749
957.622	38.217
961.393	7.57
965.162	64.222
968.93	153.327
972.696	285.005
976.459	431.828
980.222	431.721
983.982	407.878
987.74	358.065
991.497	337.819
995.252	364.71
999.005	603.156
1002.76	782.999
1006.51	881.977
1010.25	1039.73
1014	1096.16
1017.74	1139.01
1021.49	1219.27
1025.23	1145.93
1028.96	1035.98
1032.7	783.419
1036.44	612.239
1040.17	471.434
1043.9	355.999
1047.63	292.917
1051.36	215.153
1055.09	114.616
1058.81	113.124
1062.54	66.65
1066.26	58.261
1069.97	107.073
1073.69	160.112
1077.41	292.442
1081.12	400.129
1084.84	432.332
1088.55	470.088
1092.25	364.161
1095.96	347.945
1099.67	185.558
1103.37	169.607
1107.07	112.956
1110.77	54.406
1114.47	11.045
1118.16	77.932
1121.86	50.021
1125.55	44.136
1129.24	83.641
1132.93	136.527
1136.62	93.795
1140.31	78.451
1143.99	86.509
1147.67	67.989
1151.35	101.91
1155.03	215.286
1158.71	389.152
1162.39	478.54
1166.06	565.458
1169.73	841.913
1173.4	1278.91
1177.07	1843.45
1180.74	2010.54
1184.4	1634.19
1188.07	1221.41
1191.73	1054
1195.39	1115.37
1199.05	1065.4
1202.7	871.214
1206.36	868.739
1210.01	937.434
1213.66	1007.78
1217.31	1007.32
1220.96	931.577
1224.6	958.159
1228.25	1047.04
1231.89	1029.41
1235.53	1075.84
1239.17	1152.93
1242.81	1291.63
1246.44	1455.1
1250.08	1393.9
1253.71	1097.03
1257.34	820.345
1260.97	607.375
1264.6	488.488
1268.22	506.427
1271.85	364.912
1275.47	334.895
1279.09	371.521
1282.71	413.574
1286.33	387.71
1289.94	496.142
1293.56	569.122
1297.17	583.46
1300.78	616.299
1304.39	672.374
1307.99	655.469
1311.6	715.335
1315.2	793.928
1318.8	812.264
1322.4	711.385
1326	523.321
1329.6	386.079
1333.19	316.679
1336.79	217.135
1340.38	258.447
1343.97	192.632
1347.56	182.764
1351.14	175.951
1354.73	119.221
1358.31	19.566
1361.89	99.952
1365.47	56.831
1369.05	24.932
1372.63	67.42
1376.2	19.861
1379.78	19.877
1383.35	63.506
1386.92	21.002
1390.49	28.49
1394.05	19.14
1397.62	6.095
1401.18	2.175
1404.74	46.618
1408.3	0.288
1411.86	17.128
1415.42	34.547
1418.97	74.96
1422.53	142.405
1426.08	132.916
1429.63	161.53
1433.18	199.282
1436.72	185.16
1440.27	241.586
1443.81	258.52
1447.36	242.321
1450.89	321.206
1454.43	322.596
1457.97	335
1461.51	332.707
1465.04	296.514
1468.57	241.459
1472.1	233.574
1475.63	177.534
1479.16	99.672
1482.68	65.665
1486.21	62.099
1489.73	47.532
1493.25	79.957
1496.77	64.943
1500.29	86.345
1503.8	122.847
1507.32	121.772
1510.83	83.469
1514.34	56.114
1517.85	34.59
