Measurement: Raman, 514 nm, ccw, Raman Data Processed
Mineral: Titanite
Rruff sample: R050114
Ideal chemistry: CaTiSiO_5_
Locality: Isthak Valley Iskardu, Northern Areas Gilgit, Pakistan
Source: Syed Shah
Description: Yellowish-brown fragment
Measured chemistry: (Ca_0.99_Na_0.01_)(Ti_0.96_Al_0.03_Fe^3+^_0.01_)Si_1.00_O_4_(O_0.95_F_0.05_)
Pin_id: L00350
Orientation: Laser parallel to (1 0 1). Fiducial mark perpendicular to laser is parallel to b [0 1 0]
Raman shift (cm-1)	intensity
123.72	0
127.882	146.225
132.041	66.451
136.199	80.105
140.355	193.701
144.509	781.45
148.66	365.045
152.81	302.341
156.958	785.723
161.105	1471.5
165.249	2273.57
169.391	2970.67
173.531	4108.38
177.669	5284.95
181.806	6048.68
185.94	6342.68
190.073	6286.82
194.204	6311.56
198.332	6959.52
202.459	8120.45
206.584	8574.08
210.707	8490.4
214.828	8306.23
218.947	8708.87
223.064	9311.83
227.179	9754.98
231.293	9418.64
235.404	8242.99
239.514	7378.19
243.621	7844.34
247.727	9531.48
251.831	10468
255.933	10092
260.033	8797.91
264.131	6708.61
268.227	4378.65
272.321	2679.82
276.413	1535.07
280.504	1183.4
284.592	1382.81
288.679	2226.34
292.764	3046.11
296.847	2828.47
300.928	3322.29
305.007	5029.52
309.084	8639.96
313.159	17765.9
317.233	33053.1
321.304	35642.6
325.374	24224.1
329.442	15577.5
333.508	11512.6
337.572	9279.22
341.634	7097.31
345.694	5306.74
349.753	4477.44
353.809	3939.3
357.864	2812.22
361.916	1716.16
365.967	1143.09
370.016	427.968
374.064	101.782
378.109	246.697
382.152	280.932
386.194	424.206
390.233	1344.07
394.271	1985.67
398.307	2626
402.341	3597.06
406.374	5168.85
410.404	7461.36
414.433	12424.3
418.459	22197.1
422.484	35330.6
426.507	36864.8
430.528	25159.7
434.547	14035.3
438.565	7421.69
442.58	3668.76
446.594	1506.63
450.606	176.635
454.616	344.991
458.624	633.633
462.631	657.405
466.635	517.438
470.638	23.864
474.639	645.873
478.638	1547.9
482.635	2727.81
486.63	3878.57
490.624	4990.18
494.615	5262.62
498.605	5155.88
502.593	4669.95
506.579	4324.82
510.564	4450.47
514.546	4486.88
518.527	4814.06
522.506	5561.99
526.483	6340.67
530.458	7030.08
534.431	8230.22
538.403	9461.09
542.373	10055.5
546.341	10277.9
550.307	9490.92
554.271	8004.7
558.234	6559.21
562.195	5424.43
566.154	5270.35
570.111	6346.98
574.066	8544.3
578.019	11622.3
581.971	15431
585.921	19920.4
589.869	25430.5
593.815	31521.3
597.76	38152.7
601.703	43345.5
605.644	44564.4
609.583	43172.3
613.52	39663.1
617.455	34909.7
621.389	29776.2
625.321	25695.2
629.251	21948.9
633.18	19220.2
637.106	16909.2
641.031	14638.6
644.954	12799.4
648.875	11351.6
652.795	10314.6
656.712	9288.09
660.628	8402.09
664.542	7426.56
668.455	6731.49
672.365	6226.87
676.274	5782.68
680.181	5158.91
684.086	4425.55
687.99	4032.59
691.891	3620.03
695.791	3258.14
699.689	2937.15
703.586	2556.71
707.48	2320.61
711.373	2176.85
715.264	2004.42
719.154	1685.29
723.041	1361.46
726.927	1143.9
730.811	1062.6
734.693	1106.55
738.574	876.722
742.453	567.114
746.33	431.704
750.205	256.478
754.079	207.419
757.95	43.484
761.82	265.653
765.689	336.62
769.555	330.502
773.42	278.682
777.283	143.838
781.144	243.847
785.004	104.99
788.862	72.451
792.718	351.88
796.572	619.502
800.425	849.679
804.276	1036.7
808.125	1285.04
811.972	1509.49
815.818	1909.74
819.662	2453.81
823.504	2819.68
827.345	3427.36
831.183	4180.9
835.02	5089.41
838.856	6057.98
842.689	7376.7
846.521	8815.74
850.351	10105.1
854.18	12234.5
858.006	14783.6
861.831	17632.3
865.655	22280.7
869.476	28958.8
873.296	31916.5
877.114	29493.9
880.93	25720.8
884.745	24837.4
888.558	24763.6
892.369	21059.4
896.179	14854.8
899.987	10809.8
903.793	9844.3
907.597	10848.4
911.4	13481.3
915.201	13011.1
919.001	9034.92
922.798	5309
926.594	2782.7
930.388	1534.48
934.181	586.063
937.972	89.498
941.761	119.122
945.548	241.43
949.334	255.134
953.118	142.984
956.901	167.858
960.681	702.893
964.46	1424.57
968.238	2577.89
972.013	4294.41
975.787	5659.69
979.56	5823.11
983.33	5206.19
987.099	4961.02
990.866	5225.43
994.632	5603.29
998.396	5713.23
1002.16	5445.94
1005.92	4890.27
1009.68	4733.58
1013.43	4828.48
1017.19	5565.97
1020.94	6602.07
1024.7	7917.77
1028.45	9033.08
1032.19	10108
1035.94	10362.6
1039.69	10406.8
1043.43	9380.57
1047.17	8034.03
1050.91	6467.15
1054.65	5055.92
1058.39	4152.35
1062.13	3233.49
1065.86	2551.62
1069.59	2066.94
1073.32	1747.71
1077.05	1629
1080.78	1889.76
1084.5	2480.92
1088.23	3231.75
1091.95	3111.52
1095.67	2543.51
1099.39	1660.92
1103.11	866.748
1106.82	619.26
1110.54	500.156
1114.25	380.848
1117.96	149.531
1121.67	136.261
1125.38	55.033
1129.08	101.784
1132.79	35.333
1136.49	138.592
1140.19	216.264
1143.89	326.932
1147.59	253.916
1151.28	11.949
1154.98	445.46
1158.67	1232.94
1162.36	2470.4
1166.05	3832.85
1169.74	6243.3
1173.43	10891.8
1177.11	16890.2
1180.79	20048.7
1184.47	16877.2
1188.15	12435.7
1191.83	10624.2
1195.51	11482.8
1199.18	12881.5
1202.86	11960.3
1206.53	10629.1
1210.2	10018
1213.87	9816.9
1217.54	9445.85
1221.2	9214.82
1224.86	9963.78
1228.53	11702.7
1232.19	13301.6
1235.85	14460.3
1239.5	15319.4
1243.16	15969.3
1246.81	15920.5
1250.46	15014.5
1254.12	12591.3
1257.76	10553.8
1261.41	8653.05
1265.06	7326.2
1268.7	6771.05
1272.34	6384.18
1275.99	5890.88
1279.62	5755.08
1283.26	5703.06
1286.9	6000.75
1290.53	6638.65
1294.17	7915.25
1297.8	9319.86
1301.43	10562.9
1305.06	11366.8
1308.68	11270.9
1312.31	10725.3
1315.93	10009.8
1319.56	9484.22
1323.18	8638.34
1326.8	7331.86
1330.41	6195.49
1334.03	5151.77
1337.64	4446.71
1341.26	3975.03
1344.87	3836.11
1348.47	3407.65
1352.08	3112.37
1355.69	2608.84
1359.29	2183.73
1362.9	1704.53
1366.5	1236.26
1370.1	1021.24
1373.7	700.817
1377.29	447.082
1380.89	326.197
1384.48	195.436
1388.08	120.74
1391.67	27.738
1395.26	55.74
1398.84	117.891
1402.43	73.229
1406.01	63.329
1409.6	63.717
1413.18	36.371
1416.76	62.177
1420.34	29.109
1423.91	96.785
1427.49	98.927
1431.06	127.306
1434.63	234.75
1438.2	288.29
1441.77	415.157
1445.34	616.588
1448.9	627.888
1452.47	662.526
1456.03	698.034
1459.59	605.961
1463.15	491.236
1466.71	387.92
1470.27	159.737
1473.82	96.081
1477.37	46.918
1480.93	22.112
1484.48	31.942
1488.03	27.378
1491.57	51.234
1495.12	194.334
1498.66	203.382
1502.2	237.387
1505.75	147.872
1509.29	174.271
1512.82	72.769
1516.36	23.784
1519.89	5.003
