Measurement: Raman, 514 nm, ccw, Raman Data Processed
Mineral: Titanite
Rruff sample: R050039
Ideal chemistry: CaTiSiO_5_
Locality: Kingman, Arizona, USA
Source: University of Arizona Mineral Museum
Description: Black fragment from a single crystal
Measured chemistry: (Ca_0.95_Y_0.05_)(Ti_0.85_Al_0.10_Fe^3+^_0.06_)Si_1.00_O_4_(O_0.93_F_0.07_)
Pin_id: L00126
Orientation: Laser parallel to a* (1 0 0). Fiducial mark perpendicular to laser is parallel to b [0 1 0]
Raman shift (cm-1)	intensity
127.882	0
132.041	14.272
136.199	132.586
140.355	200.948
144.509	245.023
148.66	186.819
152.81	78.062
156.958	5.854
161.105	81.897
165.249	129.482
169.391	55.646
173.531	270.562
177.669	407.781
181.806	461.278
185.94	528.79
190.073	740.025
194.204	925.295
198.332	904.854
202.459	1128.3
206.584	1316.49
210.707	1494.41
214.828	1734.36
218.947	2154.64
223.064	2435.67
227.179	2257.62
231.293	1880.64
235.404	1464.78
239.514	1490.04
243.621	1526.45
247.727	1605.06
251.831	1687.81
255.933	1864.78
260.033	1745.96
264.131	1640.58
268.227	1556.2
272.321	1451.72
276.413	1227.12
280.504	1462.4
284.592	1677.51
288.679	1812.44
292.764	2249.38
296.847	2689.12
300.928	3133.91
305.007	3881.57
309.084	4471.4
313.159	5063.16
317.233	5526.57
321.304	5410.42
325.374	4966.45
329.442	4543.56
333.508	3901.6
337.572	3280.48
341.634	2840.09
345.694	2890.38
349.753	3041.26
353.809	2942.74
357.864	3038.02
361.916	3267.84
365.967	3302.38
370.016	3226.89
374.064	3483.34
378.109	3980.44
382.152	4113.01
386.194	4577.47
390.233	5122.22
394.271	5589.18
398.307	5927.35
402.341	6193.52
406.374	6797.05
410.404	7350.48
414.433	8043.75
418.459	7896.8
422.484	7479.56
426.507	6571.98
430.528	5604.03
434.547	4601.98
438.565	3727
442.58	2937.94
446.594	2418.52
450.606	1688.72
454.616	1558.59
458.624	1258.38
462.631	1258.07
466.635	1097.6
470.638	1436.94
474.639	1576.05
478.638	1894.91
482.635	1903.53
486.63	1871.87
490.624	1579.93
494.615	1337.68
498.605	1085.11
502.593	762.203
506.579	468.942
510.564	333.321
514.546	165.938
518.527	57.866
522.506	17.326
526.483	165.824
530.458	127.102
534.431	130.016
538.403	271.724
542.373	284.437
546.341	129.122
550.307	154.674
554.271	186.045
558.234	121.913
562.195	368.186
566.154	1104.03
570.111	1691.46
574.066	2028.48
578.019	2145.09
581.971	2271.29
585.921	2287.1
589.869	2272.52
593.815	2067.67
597.76	2113.86
601.703	2280.72
605.644	2165.32
609.583	2229.78
613.52	2124.97
617.455	2007.88
621.389	2060.45
625.321	2142.69
629.251	2124.69
633.18	1996.87
637.106	1939.6
641.031	1932.95
644.954	2026.47
648.875	2019.75
652.795	1842.74
656.712	1705.46
660.628	1787.92
664.542	1740.14
668.455	1662.14
672.365	1373.38
676.274	1428.96
680.181	1448.44
684.086	1388.22
687.99	1309.98
691.891	907.358
695.791	1025.53
699.689	856.523
703.586	796.352
707.48	844.725
711.373	580.708
715.264	544.741
719.154	535.924
723.041	477.68
726.927	349.63
730.811	161.785
734.693	244.151
738.574	256.741
742.453	149.563
746.33	252.624
750.205	75.933
754.079	40.536
757.95	73.193
761.82	52.857
765.689	88.662
769.555	35.764
773.42	60.491
777.283	45.529
781.144	150.89
785.004	413.522
788.862	434.389
792.718	516.918
796.572	677.234
800.425	761.948
804.276	949.031
808.125	1216.41
811.972	1174.42
815.818	1453.32
819.662	1673.22
823.504	1944.05
827.345	2465.68
831.183	2647.94
835.02	3140.81
838.856	3824.57
842.689	4599.31
846.521	5474.96
850.351	6201.7
854.18	7359.54
858.006	8768.43
861.831	10448.4
865.655	12569.4
869.476	14911.1
873.296	16193.3
877.114	17685.7
880.93	18358.5
884.745	17941.6
888.558	17665
892.369	16888.7
896.179	14542.8
899.987	12037.1
903.793	9761.67
907.597	7394.49
911.4	5927.82
915.201	4401.88
919.001	2856.03
922.798	1912
926.594	848.479
930.388	445.26
934.181	97.665
937.972	210.73
941.761	374.721
945.548	160.348
949.334	87.231
953.118	255.554
956.901	968.621
960.681	1968.31
964.46	2972.71
968.238	3815.52
972.013	4948.43
975.787	5372.34
979.56	5522.71
983.33	5373.88
987.099	4948.77
990.866	4853.8
994.632	4428.97
998.396	4164.28
1002.16	3879.7
1005.92	3455.24
1009.68	3550.87
1013.43	3746.59
1017.19	4302.39
1020.94	4578.25
1024.7	5164.18
1028.45	5950.16
1032.19	6826.21
1035.94	7232.31
1039.69	7678.47
1043.43	7244.68
1047.17	6840.95
1050.91	6067.27
1054.65	5323.65
1058.39	4810.1
1062.13	4016.64
1065.86	3573.25
1069.59	3219.93
1073.32	3076.68
1077.05	3123.48
1080.78	3250.32
1084.5	3440.21
1088.23	3223.49
1091.95	2565.99
1095.67	1679.9
1099.39	938.338
1103.11	435.778
1106.82	5.264
1110.54	116.218
1114.25	187.91
1117.96	260.752
1121.67	244.847
1125.38	159.977
1129.08	5.818
1132.79	168.155
1136.49	532.27
1140.19	996.571
1143.89	1701.07
1147.59	2855.76
1151.28	3990.65
1154.98	5355.73
1158.67	7200.97
1162.36	9536.36
1166.05	11843.4
1169.74	14337.6
1173.43	16373.5
1177.11	17089.5
1180.79	16585.7
1184.47	15772.1
1188.15	14848.5
1191.83	14213
1195.51	14042
1199.18	14109
1202.86	13216.2
1206.53	12513.5
1210.2	11981.1
1213.87	11428.8
1217.54	11096.7
1221.2	11444.9
1224.86	12343.3
1228.53	13771.8
1232.19	14460.6
1235.85	15173.6
1239.5	15498.4
1243.16	15480.7
1246.81	14449.1
1250.46	13613.2
1254.12	12359.8
1257.76	11541.6
1261.41	9940.64
1265.06	8881.38
1268.7	8198.24
1272.34	7249
1275.99	6817.71
1279.62	6639.77
1283.26	6686.06
1286.9	7212.83
1290.53	7420.1
1294.17	8117.69
1297.8	8744.49
1301.43	8830.07
1305.06	9084.73
1308.68	9099.54
1312.31	8834.5
1315.93	8619.54
1319.56	8254.54
1323.18	7589.36
1326.8	6934.07
1330.41	6208.93
1334.03	5433.93
1337.64	4599.21
1341.26	3774.86
1344.87	3211.14
1348.47	2579.02
1352.08	2286.78
1355.69	1655.49
1359.29	1324.67
1362.9	1074.35
1366.5	724.258
1370.1	323.372
1373.7	191.305
1377.29	42.642
1380.89	151.361
1384.48	186.73
1388.08	68.57
1391.67	177.933
1395.26	90.873
1398.84	63.73
1402.43	165.069
1406.01	271.214
1409.6	237.267
1413.18	406.358
1416.76	633.596
1420.34	687.045
1423.91	791.71
1427.49	1117.68
1431.06	1205.06
1434.63	1464.24
1438.2	1521.59
1441.77	1516.02
1445.34	1372.77
1448.9	1386.6
1452.47	1111.34
1456.03	1091.56
1459.59	855.19
1463.15	719.069
1466.71	647.777
1470.27	527.853
1473.82	389.917
1477.37	361.488
1480.93	315.355
1484.48	202.016
1488.03	102.609
1491.57	0
