Measurement: Raman, 514 nm, ccw, Raman Data Processed
Mineral: Titanite
Rruff sample: R050039
Ideal chemistry: CaTiSiO_5_
Locality: Kingman, Arizona, USA
Source: University of Arizona Mineral Museum
Description: Black fragment from a single crystal
Measured chemistry: (Ca_0.95_Y_0.05_)(Ti_0.85_Al_0.10_Fe^3+^_0.06_)Si_1.00_O_4_(O_0.93_F_0.07_)
Pin_id: L00539
Orientation: Laser parallel to c* (0 0 1). Fiducial mark perpendicular to laser is parallel to a [1 0 0]
Raman shift (cm-1)	intensity
129.653	0
133.821	61.209
137.987	2.142
142.152	66.141
146.314	76.438
150.474	81.438
154.633	283.668
158.789	379.27
162.943	505.511
167.095	500.841
171.246	454.166
175.394	514.165
179.54	659.399
183.684	778.994
187.826	912.381
191.967	889.329
196.105	960.204
200.241	1045.2
204.375	1073.89
208.507	1108
212.638	1450.1
216.766	1775.17
220.892	1990.45
225.016	2256.39
229.139	1923.24
233.259	1711.12
237.377	1470.08
241.493	1260.13
245.608	1171.3
249.72	1445.02
253.83	1482.86
257.939	1639.18
262.045	1700.89
266.15	1599.7
270.252	1379.21
274.353	1258.68
278.451	1218.09
282.548	1257.41
286.642	1406.63
290.735	1575.71
294.826	2037.88
298.914	2376.22
303.001	2845.05
307.086	3425.35
311.168	4089.61
315.249	4946.02
319.328	5234.01
323.405	5163.35
327.48	4783.88
331.553	4095.47
335.624	3277.98
339.693	2751.32
343.76	2685.39
347.826	2330.14
351.889	2195.49
355.95	2271.55
360.01	2461.86
364.067	2705.65
368.123	3007.23
372.176	3124.3
376.228	3366.94
380.277	3776.28
384.325	4231.07
388.371	4851.66
392.415	5397.51
396.457	5940.24
400.497	6141.9
404.535	6682.56
408.571	7280.78
412.605	7788.92
416.638	8306.93
420.668	8664.75
424.697	8282.31
428.723	7369.56
432.748	6226.47
436.77	5173.04
440.791	4149.27
444.81	3285.14
448.827	2660.7
452.842	1975.97
456.855	1750.93
460.867	1475.84
464.876	1450.7
468.883	1395.47
472.889	1390.09
476.892	1844.51
480.894	1938.71
484.894	1922.68
488.892	1906.4
492.888	1789.86
496.882	1533.03
500.874	1175.91
504.865	848.464
508.853	552.688
512.84	348.567
516.824	186.328
520.807	21.838
524.788	165.667
528.767	29.981
532.744	96.865
536.719	151.606
540.693	144.253
544.664	164.627
548.634	191.721
552.601	91.749
556.567	62.358
560.531	174.803
564.493	494.339
568.453	1066.97
572.412	1633.1
576.368	1976.34
580.323	2219.16
584.275	2361.56
588.226	2253.55
592.175	2235.12
596.122	2086.3
600.068	2037.07
604.011	2100.03
607.952	2154.73
611.892	2135.7
615.83	2067.87
619.766	2147.9
623.7	1918.97
627.632	1967.06
631.563	1894.93
635.491	1863.07
639.418	1941.77
643.343	1890.94
647.266	1870.15
651.187	1849.01
655.106	1867.52
659.024	1685.68
662.939	1743.51
666.853	1731.02
670.765	1728.21
674.675	1674.46
678.583	1551.45
682.49	1381.41
686.394	1321.27
690.297	1283.03
694.198	1330.06
698.097	1261.34
701.995	1151.58
705.89	972.646
709.784	996.528
713.675	849.17
717.565	680.588
721.453	553.672
725.34	630.245
729.224	495.746
733.107	421.313
736.988	376.956
740.867	302.682
744.744	228.5
748.62	174.417
752.493	50.442
756.365	26.584
760.235	7.179
764.103	119.077
767.969	4.647
771.834	71.704
775.697	91.876
779.558	34.61
783.417	195.479
787.274	291.471
791.13	369.175
794.983	448.755
798.835	588.422
802.686	636.506
806.534	693.952
810.38	911.574
814.225	909.543
818.068	1168.07
821.909	1617.16
825.749	1876.66
829.586	2148.14
833.422	2607.07
837.256	2898.22
841.088	3530.11
844.919	4182.83
848.748	4946.48
852.575	6021.03
856.4	7166.4
860.223	8542.65
864.045	10359.8
867.864	12407.7
871.682	14256.1
875.499	15674.8
879.313	16843.6
883.126	17762.7
886.937	17832
890.746	17431.5
894.553	15881.2
898.359	13701.1
902.163	11451.2
905.965	9561.56
909.765	7162.13
913.564	5529.4
917.361	4126.66
921.156	2646.4
924.949	1805.08
928.74	953.108
932.53	454.971
936.318	7.13
940.104	261.047
943.889	400.574
947.672	221.754
951.453	65.906
955.232	413.394
959.01	1062.27
962.785	1952.37
966.559	2996.57
970.332	3955.4
974.102	5026.28
977.871	5552.52
981.638	5657.31
985.404	5706.19
989.167	5378.65
992.929	5078.48
996.689	4868.52
1000.45	4558.75
1004.2	4189.18
1007.96	4060.79
1011.71	4110.58
1015.46	4241.55
1019.21	4692.7
1022.96	5684.01
1026.71	6215.5
1030.45	7377.16
1034.19	7919.01
1037.94	8301.04
1041.68	8373.26
1045.41	8465.67
1049.15	7748.28
1052.88	7041.08
1056.62	6204.09
1060.35	5207.3
1064.08	4400.75
1067.8	3514.46
1071.53	3128.43
1075.25	2982.65
1078.97	2807.12
1082.7	3111.81
1086.41	3119.37
1090.13	2628.99
1093.85	1935.65
1097.56	1229.76
1101.27	608.967
1104.98	425.23
1108.69	101.901
1112.4	61.117
1116.1	204.241
1119.81	217.751
1123.51	121.394
1127.21	184.958
1130.91	78.477
1134.61	61.931
1138.3	264.915
1141.99	772.358
1145.68	1290.26
1149.38	2038.61
1153.06	2917.39
1156.75	4536.61
1160.43	6256.28
1164.12	8436.39
1167.8	10506.9
1171.48	12747.9
1175.16	13919.4
1178.83	14731.3
1182.51	14353.6
1186.18	13836.4
1189.85	12919.6
1193.52	12893.2
1197.19	12837.3
1200.86	13021.7
1204.52	12386.5
1208.19	11611.5
1211.85	11166.8
1215.51	10912.3
1219.17	10827.9
1222.82	11593.5
1226.48	12429.2
1230.13	13474.7
1233.78	14460.2
1237.43	15306.5
1241.08	16094.1
1244.73	16183.5
1248.37	15714.4
1252.01	14857.4
1255.66	13772.5
1259.3	12302
1262.93	10857.8
1266.57	9438.66
1270.21	8616.54
1273.84	7971.9
1277.47	7563.9
1281.1	7589.21
1284.73	7941.96
1288.36	8014.84
1291.98	8675.42
1295.6	8946.41
1299.23	9227.71
1302.85	9629.03
1306.46	9850.63
1310.08	10142.4
1313.7	10464.4
1317.31	10217.4
1320.92	9799.8
1324.53	9223.88
1328.14	8615.48
1331.75	7676.05
1335.35	6888.7
1338.96	5950.43
1342.56	5400.17
1346.16	4664.41
1349.76	4227.01
1353.36	3616.69
1356.95	2982.7
1360.55	2464.52
1364.14	1900.97
1367.73	1372.32
1371.32	1057.36
1374.91	658.517
1378.49	587.82
1382.08	543.289
1385.66	282.191
1389.24	189.21
1392.82	212.155
1396.4	107.036
1399.97	33.641
1403.55	12.305
1407.12	61.205
1410.69	169.268
1414.26	61.49
1417.83	120.921
1421.4	38.344
1424.96	99.247
1428.53	43.838
1432.09	138.145
1435.65	161.709
1439.21	154.104
1442.76	136.235
1446.32	145.43
1449.87	248.062
1453.43	299.055
1456.98	307.978
1460.53	262.681
1464.07	306.174
1467.62	303.676
1471.16	192.673
1474.71	146.584
1478.25	27.05
1481.79	7.848
1485.32	133.173
1488.86	63.199
1492.39	89.423
1495.93	142.066
1499.46	127.102
1502.99	178.1
1506.52	93.507
1510.05	145.305
1513.57	124.806
1517.09	0
