Measurement: Raman, 514 nm, ccw, Raman Data Processed
Mineral: Titanite
Rruff sample: R050114
Ideal chemistry: CaTiSiO_5_
Locality: Isthak Valley Iskardu, Northern Areas Gilgit, Pakistan
Source: Syed Shah
Description: Yellowish-brown fragment
Measured chemistry: (Ca_0.99_Na_0.01_)(Ti_0.96_Al_0.03_Fe^3+^_0.01_)Si_1.00_O_4_(O_0.95_F_0.05_)
Pin_id: L00251
Orientation: Laser parallel to b* (0 1 0). Fiducial mark perpendicular to laser is parallel to -c [0 0 -1]
Raman shift (cm-1)	intensity
47.49	0
51.717	133.811
55.942	287.511
60.165	412.322
64.386	647.736
68.604	365.219
72.82	62.959
77.034	143.847
81.246	141.584
85.455	18.462
89.663	645.308
93.868	1894.18
98.07	3371.68
102.271	5239.06
106.469	6739.42
110.665	7975.22
114.859	9254.71
119.05	10102.6
123.24	11208
127.427	12340.1
131.612	12368.2
135.794	12239.6
139.975	12646.1
144.153	13380.5
148.329	14495.8
152.503	18208.3
156.674	24410.3
160.843	29062.4
165.011	27195
169.175	22488.4
173.338	20442.8
177.499	20228.4
181.657	20305.4
185.813	20363.7
189.967	20513.6
194.119	22294.9
198.268	24167.9
202.415	26602.5
206.561	29018.7
210.703	29786.7
214.844	30287.6
218.983	31270.9
223.119	32572.4
227.253	33491.2
231.385	33147.5
235.515	32300.5
239.643	32961.7
243.768	36970.6
247.891	41071.9
252.012	41773.2
256.131	38441.7
260.248	31453.3
264.363	24527.7
268.475	19724.7
272.585	16654.2
276.693	14755.9
280.799	13919.8
284.903	13495.7
289.005	12483.6
293.104	11103.4
297.201	12894.9
301.296	15868.3
305.389	16773.4
309.48	17280.1
313.569	18418.1
317.655	17837.3
321.74	16857.7
325.822	17639.4
329.902	19292.3
333.98	19368.8
338.056	17561.9
342.129	14308.6
346.201	11396.6
350.27	9556.01
354.337	8906.7
358.402	8268.73
362.465	7542.1
366.526	6456.83
370.585	5002.92
374.642	3230.37
378.696	1679.24
382.748	689.864
386.799	66.187
390.847	479.854
394.893	1108.62
398.936	1577.46
402.978	1566.26
407.018	1346.99
411.055	528.267
415.091	956.888
419.124	3615.74
423.155	6395.39
427.184	6196.83
431.211	5050.04
435.236	4555.02
439.259	4811.77
443.28	5370.26
447.298	6520.51
451.315	8492.5
455.329	12056.3
459.341	18361.8
463.352	27229.3
467.36	32918.7
471.366	27650.2
475.37	16153.6
479.372	7719.15
483.371	3536.73
487.369	2019.3
491.365	1676.94
495.358	1889.76
499.35	2186.87
503.339	2646.34
507.326	3297.23
511.311	4120.49
515.295	5136.13
519.276	6294.13
523.255	8034.47
527.232	10667.1
531.207	13842.2
535.179	17629.5
539.15	20409
543.119	22760.6
547.086	23892.5
551.05	22472.8
555.013	19965.9
558.973	16031.6
562.932	11877.2
566.888	7956.6
570.842	6442.52
574.795	7698.15
578.745	11137.2
582.693	16528.3
586.639	22701.4
590.583	30496.6
594.525	38513
598.465	45652.8
602.403	49983.9
606.339	51066.8
610.273	48201.9
614.205	43180.8
618.135	37895.3
622.063	32539.3
625.989	27877
629.912	24238.7
633.834	21330.6
637.754	18731.2
641.671	16153.5
645.587	14331.8
649.501	12731.4
653.412	11441.9
657.322	10087.7
661.23	9212.93
665.135	8324.57
669.039	7480.82
672.94	6713.62
676.84	6082.87
680.738	5476.96
684.633	5089.93
688.527	4599.65
692.418	3980.77
696.308	3656.42
700.195	3193.34
704.081	2831.69
707.964	2572.14
711.846	2250.57
715.726	1960.06
719.603	1677.72
723.479	1458.62
727.352	1255.32
731.224	1064.02
735.094	851.955
738.961	726.097
742.827	632.4
746.691	489.823
750.552	406.324
754.412	232.859
758.27	108.384
762.125	2.845
765.979	49.826
769.831	58.739
773.681	198.038
777.529	216.896
781.375	167.363
785.219	141.151
789.06	169.149
792.901	114.063
796.739	87.55
800.575	139.492
804.409	137.507
808.241	117.579
812.071	151.399
815.899	136.456
819.726	143.032
823.55	101.329
827.372	120.004
831.193	38.014
835.011	94.055
838.828	52.29
842.642	5.24
846.455	39.754
850.266	79.395
854.075	145.299
857.881	279.604
861.686	369.458
865.489	544.975
869.29	784.259
873.089	1018.31
876.886	1219.08
880.682	1592.5
884.475	1959.55
888.266	2110.73
892.056	1853.38
895.843	1610
899.629	1709.84
903.413	2148.7
907.194	3003.66
910.974	3667.77
914.752	3239.82
918.528	2317.39
922.302	1606.38
926.074	1184.79
929.844	964.081
933.613	805.29
937.379	760.392
941.144	692.099
944.906	691.151
948.667	682.911
952.426	725.119
956.183	746.432
959.938	788.078
963.691	770.383
967.442	782.4
971.191	789.552
974.939	800.019
978.684	812.524
982.428	770.996
986.169	736.232
989.909	692.698
993.647	684.502
997.383	729.4
1001.12	785.333
1004.85	970.885
1008.58	1137.8
1012.31	1203.91
1016.03	1185.67
1019.76	1182.02
1023.48	1013.67
1027.2	805.464
1030.92	575.426
1034.64	449.573
1038.36	359.918
1042.07	349.457
1045.78	278.198
1049.49	235.145
1053.2	224.306
1056.9	209.69
1060.61	216.317
1064.31	225.222
1068.01	223.154
1071.71	252.062
1075.41	317.177
1079.1	383.454
1082.79	504.416
1086.48	551.388
1090.17	536.141
1093.86	498.289
1097.55	351.588
1101.23	272.699
1104.91	215.042
1108.59	173.144
1112.27	172.602
1115.95	159.713
1119.62	93.601
1123.3	37.492
1126.97	65.889
1130.63	45.813
1134.3	36.033
1137.97	15.676
1141.63	1.193
1145.29	1.005
1148.95	19.36
1152.61	49.852
1156.27	68.42
1159.92	114.997
1163.57	170.529
1167.22	268.964
1170.87	464.293
1174.52	668.526
1178.16	717.671
1181.81	574.638
1185.45	430.755
1189.09	409.278
1192.73	442.051
1196.36	473.179
1200	493.086
1203.63	481.398
1207.26	506.279
1210.89	486.67
1214.52	395.276
1218.14	314.477
1221.77	268.66
1225.39	261.714
1229.01	311.214
1232.62	297.129
1236.24	296.837
1239.86	302.407
1243.47	300.772
1247.08	257.612
1250.69	181.62
1254.3	142.937
1257.9	136.794
1261.5	100.159
1265.11	92.941
1268.71	78.604
1272.3	62.882
1275.9	62.856
1279.49	51.597
1283.09	36.06
1286.68	53.237
1290.27	83.324
1293.86	91.835
1297.44	141.993
1301.03	138.334
1304.61	133.52
1308.19	111.987
1311.77	113.312
1315.34	116.398
1318.92	121.227
1322.49	134.831
1326.06	124.325
1329.63	130.093
1333.2	172.143
1336.77	191.496
1340.33	243.892
1343.89	237.359
1347.46	218.242
1351.02	205.764
1354.57	145.258
1358.13	108.515
1361.68	58.488
1365.23	32.615
1368.79	26.609
1372.33	2.369
1375.88	12.94
1379.43	25.041
1382.97	16.821
1386.51	21.809
1390.05	35.984
1393.59	23.282
1397.13	9.633
1400.66	2.999
1404.19	2.622
1407.72	3.599
1411.25	23.641
1414.78	47.686
1418.31	68.73
1421.83	76.81
1425.36	110.953
1428.88	119.174
1432.39	159.479
1435.91	197.858
1439.43	218.35
1442.94	240.19
1446.45	260.384
1449.96	233.38
1453.47	196.186
1456.98	175.26
1460.48	153.736
1463.99	125.655
1467.49	95.747
1470.99	84.333
1474.49	66.747
1477.99	58.936
1481.48	35.198
1484.97	36.165
1488.46	12.698
1491.95	6.164
1495.44	15.298
1498.93	14.822
1502.41	14.694
1505.9	21.578
1509.38	5.129
1512.86	47.995
1516.34	0
