Measurement: Raman, 514 nm, ccw, Raman Data Processed
Mineral: Titanite
Rruff sample: R050114
Ideal chemistry: CaTiSiO_5_
Locality: Isthak Valley Iskardu, Northern Areas Gilgit, Pakistan
Source: Syed Shah
Description: Yellowish-brown fragment
Measured chemistry: (Ca_0.99_Na_0.01_)(Ti_0.96_Al_0.03_Fe^3+^_0.01_)Si_1.00_O_4_(O_0.95_F_0.05_)
Pin_id: L00350
Orientation: Laser parallel to (1 0 1). Fiducial mark perpendicular to laser is parallel to b [0 1 0]
Raman shift (cm-1)	intensity
120.944	0
125.107	18.248
129.268	104.938
133.427	124.58
137.584	86.67
141.74	623.571
145.893	1267.5
150.044	1742.42
154.193	3661.68
158.341	8859.82
162.486	14459.9
166.63	14288.2
170.771	10445.3
174.911	8125.66
179.049	8385.91
183.184	9293.75
187.318	9187.65
191.45	9362.98
195.58	10576.3
199.708	12451.1
203.834	14753.7
207.958	17185.2
212.081	18098.9
216.201	17707.2
220.32	18051.7
224.436	19693.3
228.551	20872.5
232.663	21089.9
236.774	20465.6
240.883	21069.8
244.99	24232.5
249.095	28513.7
253.198	30974.9
257.299	30046.7
261.399	25021.1
265.496	18558
269.592	13645.3
273.685	10506.4
277.777	9306.84
281.867	8766.06
285.955	9352.02
290.041	9197.32
294.125	7066.9
298.207	6446.86
302.288	8912.22
306.366	10274.4
310.443	10761
314.517	12110.7
318.59	14022.8
322.661	13596.7
326.73	13321.9
330.797	14877.9
334.863	16214.3
338.926	14680.9
342.988	11537.6
347.047	9084.18
351.105	7710.61
355.161	6876.58
359.215	6031.26
363.267	5244.27
367.317	4735.77
371.366	3775.9
375.412	2494.78
379.457	1150.47
383.5	261.029
387.541	204.024
391.58	511.639
395.617	1025.59
399.652	1385.92
403.686	1390.55
407.717	1128.56
411.747	350.19
415.775	1344.4
419.801	4562.47
423.825	8218.05
427.848	8593.29
431.868	6452.35
435.887	4630.91
439.904	4009.32
443.918	3897.62
447.932	4385.92
451.943	5574.55
455.952	7573.59
459.96	11723
463.966	17392.9
467.969	22783.1
471.972	20823.7
475.972	12934.5
479.97	6895.34
483.967	4066.04
487.961	3306.34
491.954	3536.1
495.945	3885.28
499.935	4393.87
503.922	4591.87
507.908	5009.27
511.891	5626.09
515.873	6852.33
519.853	8208.01
523.832	9473.15
527.808	10987.8
531.783	13332
535.756	16015.7
539.727	18458.9
543.696	19782.4
547.663	19780.8
551.629	18808.8
555.592	16455.2
559.554	13293.5
563.514	9949.46
567.473	7085.11
571.429	6165.05
575.384	7800.23
579.337	11352.5
583.288	16145.2
587.237	22508.5
591.185	29952.3
595.13	37666.9
599.074	44442.1
603.016	49189.3
606.957	51129.7
610.895	48975.3
614.832	44350.3
618.767	38203.3
622.7	33340.2
626.631	28431.4
630.561	25024.2
634.489	21654.1
638.415	18850.3
642.339	16490.1
646.261	14889.6
650.182	13276.4
654.101	11763.3
658.018	10480
661.933	9357.3
665.847	8474.96
669.758	7773.04
673.668	7111.96
677.577	6230.97
681.483	5621.29
685.388	4992.56
689.29	4583.45
693.192	4164.04
697.091	3662.04
700.988	3223.53
704.884	2918.29
708.778	2513.2
712.67	2218.2
716.561	1974.14
720.45	1622.97
724.337	1470.39
728.222	1166.32
732.105	1007.55
735.987	714.102
739.867	579.949
743.745	480.066
747.622	344.429
751.496	207.014
755.369	12.796
759.241	104.308
763.11	169.541
766.978	224.361
770.844	307.146
774.708	344.944
778.57	360.832
782.431	306.792
786.29	260.252
790.147	223.322
794.003	133.614
797.857	18.521
801.709	197.069
805.559	288.633
809.407	389.68
813.254	556.908
817.099	596.193
820.943	586.906
824.784	426.323
828.624	493.428
832.462	422.216
836.299	432.661
840.134	429.754
843.967	587.513
847.798	760.971
851.628	967.103
855.455	1373.84
859.281	1758.12
863.106	2121.89
866.929	2843.67
870.75	3702.61
874.569	4277.44
878.386	4364.49
882.202	4561.69
886.016	5124
889.829	5164.41
893.639	3926.91
897.448	2773.47
901.256	2156.08
905.061	2053.74
908.865	2828.32
912.667	3530.05
916.468	3379.95
920.267	2267.8
924.064	1273.81
927.859	662.212
931.653	261.315
935.445	101.927
939.235	1.63
943.024	120.229
946.811	150.269
950.596	75.042
954.379	13.649
958.161	133.738
961.941	362.094
965.72	631.609
969.496	1006.47
973.272	1358.98
977.045	1729.25
980.817	1798.41
984.587	1860.76
988.355	2034.07
992.122	2345.01
995.887	2412.41
999.65	2228.21
1003.41	2021.68
1007.17	1903.59
1010.93	1927.12
1014.69	2013.6
1018.44	2136.3
1022.2	2281.21
1025.95	2516.34
1029.7	2462.72
1033.44	2497.33
1037.19	2452.2
1040.94	2334.33
1044.68	2056.75
1048.42	2117.45
1052.16	1708.45
1055.9	1131.77
1059.64	977.422
1063.37	790.465
1067.1	696.064
1070.84	623.454
1074.57	537.801
1078.29	591.161
1082.02	658.733
1085.75	876.565
1089.47	928.259
1093.19	973.141
1096.91	733.024
1100.63	511.427
1104.35	328.708
1108.06	256.069
1111.78	203.854
1115.49	196.102
1119.2	169.915
1122.91	118.44
1126.61	62.626
1130.32	10.555
1134.02	26.116
1137.72	42.07
1141.42	60.449
1145.12	40.331
1148.82	18.712
1152.52	13.452
1156.21	124.278
1159.9	364.849
1163.59	574.214
1167.28	951.392
1170.97	1666.39
1174.65	2816.23
1178.34	4086.9
1182.02	4330.41
1185.7	3398.78
1189.38	2430
1193.06	2196.1
1196.73	2457.07
1200.41	2615.94
1204.08	2492.71
1207.75	2166.4
1211.42	2107.03
1215.09	2073.59
1218.76	1922.07
1222.42	1894.2
1226.08	2075.16
1229.75	2417.44
1233.41	2676.82
1237.06	3010.87
1240.72	3138.57
1244.38	3246.71
1248.03	3261.77
1251.68	3027.41
1255.33	2564.02
1258.98	2128.91
1262.63	1817.04
1266.27	1610.6
1269.92	1390
1273.56	1294.53
1277.2	1198.68
1280.84	1167.27
1284.47	1222.87
1288.11	1327.88
1291.74	1513.01
1295.38	1854.87
1299.01	2234.98
1302.64	2458.84
1306.27	2581.4
1309.89	2449.68
1313.52	2376.98
1317.14	2241.08
1320.76	2186.83
1324.38	1995.18
1328	1761.25
1331.62	1568.2
1335.23	1338.08
1338.85	1195.02
1342.46	1079.1
1346.07	1126.35
1349.68	1024.53
1353.29	921.778
1356.89	800.103
1360.49	682.847
1364.1	548.118
1367.7	422.97
1371.3	294
1374.9	216.504
1378.49	83.424
1382.09	77.888
1385.68	29.817
1389.27	17.492
1392.86	35.163
1396.45	54.169
1400.04	7.307
1403.62	8.327
1407.21	27.97
1410.79	18.037
1414.37	23.204
1417.95	7.48
1421.53	35.756
1425.1	85.077
1428.68	132.494
1432.25	171.027
1435.82	265.677
1439.39	319.389
1442.96	426.212
1446.53	474.288
1450.09	432.78
1453.66	492.014
1457.22	477.799
1460.78	404.779
1464.34	345.076
1467.89	263.048
1471.45	239.522
1475.01	194.857
1478.56	131.935
1482.11	62.277
1485.66	69.262
1489.21	41.218
1492.75	6.278
1496.3	24.463
1499.84	32.501
1503.38	46.054
1506.93	41.751
1510.46	20.671
1514	0.7
1517.54	34.497
1521.07	0
