Measurement: Raman, 514 nm, ccw, Raman Data Processed
Mineral: Titanite
Rruff sample: R050114
Ideal chemistry: CaTiSiO_5_
Locality: Isthak Valley Iskardu, Northern Areas Gilgit, Pakistan
Source: Syed Shah
Description: Yellowish-brown fragment
Measured chemistry: (Ca_0.99_Na_0.01_)(Ti_0.96_Al_0.03_Fe^3+^_0.01_)Si_1.00_O_4_(O_0.95_F_0.05_)
Pin_id: L00085
Orientation: Laser parallel to a* (1 0 0). Fiducial mark perpendicular to laser is parallel to -b [0 -1 0]
Raman shift (cm-1)	intensity
119.05	0
123.24	178.921
127.427	63.7
131.612	119.681
135.794	1055.67
139.975	3974.95
144.153	5367.17
148.329	3215.38
152.503	3926.45
156.674	7353.52
160.843	10107.5
165.011	9779.01
169.175	7598.41
173.338	6794.08
177.499	7202.91
181.657	7792.69
185.813	7554.25
189.967	7487.74
194.119	8516.33
198.268	9773.44
202.415	11463.9
206.561	12414.3
210.703	11997.3
214.844	11914.9
218.983	12683.5
223.119	13472.8
227.253	14462.9
231.385	14895.2
235.515	14746.5
239.643	14240.1
243.768	16435
247.891	19041.1
252.012	20564.8
256.131	19703.1
260.248	15774.4
264.363	11447
268.475	8360.66
272.585	6625.32
276.693	6100.82
280.799	6927.12
284.903	8764.03
289.005	10976.4
293.104	9681
297.201	6183.4
301.296	5368.36
305.389	6689.2
309.48	10957.1
313.569	20993
317.655	28887.8
321.74	23013.8
325.822	17142.4
329.902	15033.2
333.98	13565.9
338.056	10800.3
342.129	8626.19
346.201	8733.36
350.27	10751.7
354.337	9340.89
358.402	5690.82
362.465	3631.43
366.526	2472.66
370.585	1284.47
374.642	316.729
378.696	358.717
382.748	630.562
386.799	280.397
390.847	92.762
394.893	42.871
398.936	414.745
402.978	1085.87
407.018	2157.24
411.055	4468.84
415.091	9409.63
419.124	18538.2
423.155	25856.7
427.184	21745.5
431.211	12954.5
435.236	6813.82
439.259	3193.4
443.28	993.251
447.298	140.467
451.315	782.246
455.329	854.347
459.341	596.26
463.352	61.163
467.36	166.715
471.366	109.117
475.37	152.563
479.372	883.12
483.371	2027.05
487.369	3471.34
491.365	4365.98
495.358	4630.96
499.35	4596.25
503.339	4371.84
507.326	4317.73
511.311	4443.89
515.295	5050.32
519.276	5697.02
523.255	6323.99
527.232	7321.22
531.207	8468.7
535.179	10176.4
539.15	10970.3
543.119	11324.5
547.086	10639.8
551.05	8588.28
555.013	6997.56
558.973	5427.21
562.932	5427.23
566.888	7457.6
570.842	10938.4
574.795	14769.5
578.745	18761
582.693	23963
586.639	29575.4
590.583	36628.2
594.525	43905.2
598.465	50585.2
602.403	54579.4
606.339	54983.1
610.273	52078
614.205	46535.5
618.135	41153.3
622.063	35193.3
625.989	30564.2
629.912	26789.7
633.834	23863.5
637.754	21034.2
641.671	18426.8
645.587	16211.1
649.501	14526.8
653.412	13223.3
657.322	11940.3
661.23	10627.9
665.135	9556.03
669.039	8584.67
672.94	8183.84
676.84	7163.52
680.738	6392.95
684.633	5784.41
688.527	5215.63
692.418	4597.35
696.308	4249.74
700.195	3653.65
704.081	3199.26
707.964	3006
711.846	2643.36
715.726	2151.2
719.603	1939.51
723.479	1708.26
727.352	1485.45
731.224	1246.07
735.094	1054.11
738.961	803.55
742.827	578.39
746.691	459.611
750.552	276.857
754.412	123.156
758.27	112.551
762.125	258.18
765.979	351.196
769.831	289.091
773.681	312.976
777.529	149.527
781.375	56.008
785.219	159.182
789.06	439.528
792.901	984.612
796.739	1388.96
800.575	1816.79
804.409	2206.91
808.241	2796.12
812.071	3463.98
815.899	3789.77
819.726	4085.5
823.55	4651.22
827.372	5246.94
831.193	5722.66
835.011	6278.43
838.828	7574.36
842.642	9020.5
846.455	11346.8
850.266	14263.1
854.075	17269.1
857.881	19844.9
861.686	22020.4
865.489	26795.5
869.29	34030.3
873.089	36314.7
876.886	34448.8
880.682	34732.5
884.475	35285.7
888.266	32358.6
892.056	24441.1
895.843	16793.1
899.629	11994.6
903.413	10225.7
907.194	10066.3
910.974	9912.34
914.752	7749.8
918.528	4903.95
922.302	2634.58
926.074	1310.51
929.844	461.292
933.613	45.643
937.379	111.674
941.144	282.128
944.906	323.231
948.667	241.007
952.426	37.265
956.183	350.643
959.938	984.715
963.691	1871.17
967.442	3046.65
971.191	4517.86
974.939	5234.46
978.684	4832.17
982.428	4555.73
986.169	4238.76
989.909	4313.7
993.647	4383.05
997.383	4129.79
1001.12	4025.6
1004.85	3789.59
1008.58	3750.95
1012.31	4138.67
1016.03	4910.76
1019.76	5724.22
1023.48	6506.05
1027.2	7227.26
1030.92	7717.85
1034.64	7827.83
1038.36	7567.2
1042.07	6585.96
1045.78	5309.12
1049.49	4306.69
1053.2	3267.66
1056.9	2638.06
1060.61	2132.9
1064.31	1714.43
1068.01	1478.96
1071.71	1407.59
1075.41	1869.33
1079.1	2760.25
1082.79	3957.14
1086.48	4794.42
1090.17	4460.59
1093.86	3139.14
1097.55	1660.23
1101.23	763.569
1104.91	443.486
1108.59	289.882
1112.27	170.081
1115.95	113.018
1119.62	41.605
1123.3	5.257
1126.97	30.372
1130.63	53.521
1134.3	146.096
1137.97	215.59
1141.63	193.077
1145.29	12.587
1148.95	422.914
1152.61	1033.09
1156.27	2222.14
1159.92	3670.07
1163.57	5666.87
1167.22	9667.55
1170.87	15535.1
1174.52	21422.5
1178.16	21319.8
1181.81	16677
1185.45	12604.1
1189.09	11881.2
1192.73	13018.1
1196.36	13515
1200	12341.7
1203.63	11098.5
1207.26	10715.2
1210.89	10131.8
1214.52	9398.38
1218.14	9104.96
1221.77	9681.5
1225.39	11018
1229.01	12524.7
1232.62	12962.1
1236.24	13305.6
1239.86	13184.2
1243.47	12699.6
1247.08	11265.3
1250.69	9456.79
1254.3	7819.46
1257.9	6713.15
1261.5	5839.94
1265.11	5245.04
1268.71	4791.21
1272.3	4670.06
1275.9	4450.31
1279.49	4373.66
1283.09	4823.11
1286.68	5713.52
1290.27	6915.64
1293.86	8218.43
1297.44	9222.39
1301.03	9326.53
1304.61	8759.89
1308.19	8221.94
1311.77	7643.32
1315.34	6944.61
1318.92	6265.93
1322.49	5429.24
1326.06	4445.5
1329.63	3643.64
1333.2	3181.56
1336.77	2718.29
1340.33	2370.02
1343.89	2080.78
1347.46	1751.6
1351.02	1501.54
1354.57	1190.73
1358.13	871.074
1361.68	615.49
1365.23	436.353
1368.79	269.385
1372.33	100.672
1375.88	0.788
1379.43	105.469
1382.97	138.783
1386.51	164.987
1390.05	153.596
1393.59	65.096
1397.13	1.389
1400.66	167.016
1404.19	211.828
1407.72	318.875
1411.25	418.32
1414.78	553.225
1418.31	735.648
1421.83	1022.68
1425.36	1321.42
1428.88	1625.93
1432.39	1981.28
1435.91	2399.45
1439.43	2615.88
1442.94	2774.02
1446.45	2619.87
1449.96	2512.33
1453.47	2221.63
1456.98	1948.7
1460.48	1569.68
1463.99	1197.48
1467.49	979.919
1470.99	627.236
1474.49	443.974
1477.99	273.252
1481.48	268.82
1484.97	156.97
1488.46	140.142
1491.95	71.48
1495.44	48.814
1498.93	4.363
1502.41	9.552
