Measurement: Raman, 514 nm, ccw, Raman Data Processed
Mineral: Titanite
Rruff sample: R050039
Ideal chemistry: CaTiSiO_5_
Locality: Kingman, Arizona, USA
Source: University of Arizona Mineral Museum
Description: Black fragment from a single crystal
Measured chemistry: (Ca_0.95_Y_0.05_)(Ti_0.85_Al_0.10_Fe^3+^_0.06_)Si_1.00_O_4_(O_0.93_F_0.07_)
Pin_id: L00107
Orientation: Laser parallel to (-1 0 -1). Fiducial mark perpendicular to laser is parallel to b [0 1 0]
Raman shift (cm-1)	intensity
119.556	0
123.72	292.96
127.882	71.538
132.041	81.562
136.199	397.773
140.355	755.873
144.509	1120.39
148.66	1472.56
152.81	1576.68
156.958	1479.28
161.105	1620.54
165.249	1918.69
169.391	1839.81
173.531	2149.27
177.669	2391.98
181.806	2731.06
185.94	2913.77
190.073	3623.38
194.204	4028.95
198.332	4309.67
202.459	5174.76
206.584	5740.81
210.707	6267.52
214.828	7004.52
218.947	7643.75
223.064	8114.95
227.179	8068.24
231.293	7424.91
235.404	7058.96
239.514	7351.29
243.621	7749.52
247.727	7900.56
251.831	8252.51
255.933	8275.07
260.033	7638.43
264.131	6972.4
268.227	6216.81
272.321	5401.62
276.413	4676.79
280.504	4332.26
284.592	4005.61
288.679	3834.2
292.764	3970.04
296.847	4385.35
300.928	4796.94
305.007	5542.26
309.084	5940.71
313.159	6371.86
317.233	6785.38
321.304	6970.97
325.374	6738.4
329.442	6177.46
333.508	5839.52
337.572	5006.47
341.634	4617.42
345.694	4394.87
349.753	4624.75
353.809	4508.48
357.864	4487.27
361.916	4818.7
365.967	4558.6
370.016	3980.53
374.064	3705.86
378.109	3424.78
382.152	2954.05
386.194	2904.29
390.233	2884.21
394.271	2921.67
398.307	2932.38
402.341	2872.73
406.374	3363.03
410.404	3823.21
414.433	4693.26
418.459	4803.15
422.484	4882.87
426.507	4432.41
430.528	3801.75
434.547	3180.89
438.565	2419.82
442.58	1898.52
446.594	1577.06
450.606	1235.85
454.616	1156.86
458.624	1274.31
462.631	1293.81
466.635	1223.4
470.638	963.01
474.639	672.63
478.638	652.241
482.635	481.83
486.63	371.379
490.624	170.861
494.615	90.227
498.605	195.334
502.593	403.108
506.579	447.693
510.564	534.682
514.546	454.399
518.527	396.799
522.506	261.199
526.483	127.02
530.458	13.88
534.431	75.328
538.403	190.92
542.373	42.976
546.341	134.775
550.307	76.361
554.271	77.606
558.234	198.466
562.195	329.103
566.154	1079.53
570.111	1999.89
574.066	2989.8
578.019	3869.64
581.971	4459.3
585.921	4848.78
589.869	5468.09
593.815	5687.24
597.76	6036.22
601.703	6665.06
605.644	6923.75
609.583	7212.3
613.52	7250.7
617.455	7318.96
621.389	7397.1
625.321	7835.49
629.251	7764.92
633.18	7785.78
637.106	7648.2
641.031	7631.88
644.954	7736.07
648.875	7770.2
652.795	7422.68
656.712	6908.47
660.628	7060.95
664.542	6618.24
668.455	6151.46
672.365	5910.64
676.274	5517.48
680.181	5125.73
684.086	4896.14
687.99	4693.43
691.891	4265.04
695.791	4040
699.689	3904.56
703.586	3850.01
707.48	3735.71
711.373	3284.36
715.264	3150.2
719.154	2916.72
723.041	2713.5
726.927	2450.56
730.811	1817.9
734.693	2015.52
738.574	1763.41
742.453	1571.59
746.33	1490.05
750.205	1168.79
754.079	967.813
757.95	887.12
761.82	636.706
765.689	496.576
769.555	566.728
773.42	447.572
777.283	519.821
781.144	465.894
785.004	706.52
788.862	893.102
792.718	798.328
796.572	678.044
800.425	658.193
804.276	679.734
808.125	721.297
811.972	463.129
815.818	655.936
819.662	520.188
823.504	625.876
827.345	743.323
831.183	1062.38
835.02	1192.46
838.856	1463.16
842.689	2104.17
846.521	2845.26
850.351	3356.28
854.18	4277.24
858.006	5568.12
861.831	7198.92
865.655	9019.72
869.476	10910.4
873.296	12211.1
877.114	13891.5
880.93	14521.9
884.745	14162
888.558	13892
892.369	13311.9
896.179	11511.5
899.987	9361
903.793	7350.27
907.597	5159.31
911.4	4148.14
915.201	2976.73
919.001	1545.08
922.798	923.184
926.594	211.018
930.388	1.584
934.181	605.708
937.972	552.916
941.761	403.694
945.548	207.992
949.334	45.048
953.118	692.359
956.901	1498.66
960.681	2370.54
964.46	3528.16
968.238	4619.31
972.013	5743.03
975.787	6305.62
979.56	6267.22
983.33	6494.08
987.099	6138.81
990.866	5917.57
994.632	5645.42
998.396	5202.78
1002.16	4829.65
1005.92	4486.04
1009.68	4631.95
1013.43	4647.37
1017.19	5222.3
1020.94	5116.75
1024.7	5650.71
1028.45	5854.19
1032.19	6687.18
1035.94	6849.68
1039.69	7271.7
1043.43	6993.25
1047.17	6334.31
1050.91	5734.89
1054.65	4825
1058.39	4434.63
1062.13	3723.8
1065.86	3312.49
1069.59	2970.73
1073.32	2638.51
1077.05	2744.02
1080.78	2972.7
1084.5	3125.72
1088.23	2845.41
1091.95	2265.36
1095.67	1679.82
1099.39	1073.37
1103.11	527.856
1106.82	244.501
1110.54	71.329
1114.25	141.77
1117.96	185.381
1121.67	79.723
1125.38	244.753
1129.08	120.914
1132.79	217.901
1136.49	74.487
1140.19	406.783
1143.89	979.046
1147.59	1891.28
1151.28	2983.49
1154.98	4145.66
1158.67	5677.77
1162.36	7519.81
1166.05	9481.77
1169.74	11693.7
1173.43	13575.5
1177.11	14337.2
1180.79	14278.9
1184.47	13380.5
1188.15	12422
1191.83	11632.1
1195.51	11574.8
1199.18	11606.1
1202.86	10957.3
1206.53	10478.6
1210.2	9960.01
1213.87	9371.54
1217.54	9023.22
1221.2	9255.05
1224.86	9887.04
1228.53	11259.4
1232.19	12043.2
1235.85	12839.1
1239.5	13317.6
1243.16	13539.1
1246.81	12761.4
1250.46	12008.3
1254.12	10932.9
1257.76	10405.2
1261.41	8924.98
1265.06	8178.02
1268.7	7664.7
1272.34	6944.14
1275.99	6462
1279.62	6160.68
1283.26	6370
1286.9	6932.98
1290.53	7126.35
1294.17	8059.16
1297.8	8700.98
1301.43	9180.78
1305.06	9518.84
1308.68	9656.17
1312.31	9293.11
1315.93	9139.56
1319.56	8985.27
1323.18	8630.08
1326.8	7764.2
1330.41	7247.81
1334.03	6540.89
1337.64	5684.69
1341.26	4857.19
1344.87	4139.87
1348.47	3369.48
1352.08	2774.81
1355.69	2330.77
1359.29	1927.4
1362.9	1524.62
1366.5	1181.48
1370.1	747.446
1373.7	491.762
1377.29	75.301
1380.89	99.89
1384.48	112.744
1388.08	114.132
1391.67	195.342
1395.26	96.339
1398.84	46.85
1402.43	43.359
1406.01	134.472
1409.6	326.743
1413.18	500.446
1416.76	595.795
1420.34	612.794
1423.91	790.671
1427.49	1149.37
1431.06	1308.89
1434.63	1580.31
1438.2	1653.49
1441.77	1617.89
1445.34	1582.64
1448.9	1496.71
1452.47	1274.94
1456.03	1230.95
1459.59	820.139
1463.15	580.636
1466.71	546.89
1470.27	335.195
1473.82	180.871
1477.37	312.553
1480.93	357.034
1484.48	171.342
1488.03	0
