Measurement: Raman, 514 nm, ccw, Raman Data Processed
Mineral: Titanite
Rruff sample: R050039
Ideal chemistry: CaTiSiO_5_
Locality: Kingman, Arizona, USA
Source: University of Arizona Mineral Museum
Description: Black fragment from a single crystal
Measured chemistry: (Ca_0.95_Y_0.05_)(Ti_0.85_Al_0.10_Fe^3+^_0.06_)Si_1.00_O_4_(O_0.93_F_0.07_)
Pin_id: L00457
Orientation: Laser parallel to -b* (0 -1 0). Fiducial mark perpendicular to laser is parallel to -c [0 0 -1]
Raman shift (cm-1)	intensity
80.327	0
84.529	355.393
88.728	102.42
92.926	1078.7
97.121	2548.64
101.314	4412.95
105.505	6304.84
109.694	9126.62
113.881	9921.71
118.066	10302.3
122.249	10547.3
126.43	10879.2
130.608	11285.6
134.785	11368.4
138.959	11702.4
143.131	12624
147.301	13330.7
151.469	14582.2
155.635	15687.4
159.799	16415.5
163.961	17294.9
168.121	16942.2
172.278	17699.1
176.434	17920.1
180.587	18187.3
184.739	18581.8
188.888	19034.3
193.035	19375
197.18	19754.1
201.324	20571.4
205.465	21626.8
209.603	22641.7
213.74	23754.5
217.875	24697.7
222.008	25283.8
226.139	24985.8
230.267	24782.9
234.394	24104.7
238.518	24081.6
242.641	24301.5
246.761	24778.4
250.879	24271.6
254.996	22866.7
259.11	21811.9
263.222	20267
267.332	17868.4
271.44	16103.6
275.546	14360.8
279.65	13508.6
283.752	12665.9
287.852	12141.6
291.95	12205
296.046	12785.4
300.14	12862.2
304.231	13115.1
308.321	13533.5
312.409	14107.2
316.495	14415.9
320.578	14459.2
324.66	14366.7
328.739	14348.1
332.817	14299.7
336.892	13809.1
340.966	13253.4
345.037	12662.3
349.107	12377.9
353.174	12085.1
357.24	12475.2
361.303	11747.6
365.365	11307.3
369.424	9509.52
373.481	7534.25
377.537	5081.25
381.59	2480.26
385.642	711.059
389.691	446.443
393.738	1172.92
397.784	1319.63
401.827	1117.8
405.868	700.35
409.908	514.58
413.945	1902.87
417.98	2744.96
422.014	3900.38
426.045	3948.76
430.075	3659.88
434.102	3553.53
438.127	3969.56
442.151	3807.81
446.172	4618.16
450.192	5350.48
454.209	6884.68
458.225	7900.68
462.238	9338.37
466.25	9157.7
470.259	8268.58
474.267	7350.96
478.273	5564.77
482.276	3329.97
486.278	1576.49
490.278	494.305
494.276	36.736
498.271	628.689
502.265	964.088
506.257	1063.77
510.247	627.805
514.235	104.92
518.221	47.297
522.205	730.799
526.187	1766.63
530.167	2614.6
534.145	3414.14
538.122	4224.87
542.096	4366.51
546.068	5129.05
550.039	5130.95
554.007	4791.37
557.973	4454.49
561.938	3605.88
565.901	3579.69
569.861	4653.57
573.82	5843.02
577.777	7593.56
581.732	9625.12
585.685	11487.7
589.636	13291.3
593.585	14335.8
597.532	16051.2
601.477	17617.6
605.42	18874.8
609.361	20073
613.301	20662.1
617.238	22252.1
621.174	21853
625.108	23094.7
629.039	23187.3
632.969	23880.9
636.897	24045.5
640.823	24681.1
644.747	24037.8
648.669	23985.3
652.589	23948.4
656.508	22463.2
660.424	22371.5
664.339	21752.6
668.251	21188.9
672.162	20467.3
676.071	19829.3
679.978	19664.5
683.883	17818.1
687.786	18399.2
691.687	17915.3
695.586	17425.2
699.484	16334.9
703.379	15425.5
707.273	15457.1
711.165	13960.5
715.055	13286.7
718.943	12965.8
722.829	11917.6
726.713	11280.9
730.595	10284.9
734.476	9649.62
738.354	8845.06
742.231	8321.31
746.106	7758.43
749.978	6836.69
753.849	6106.47
757.719	5978.15
761.586	5621.79
765.451	5067.04
769.315	4613.4
773.177	4110.44
777.036	3818
780.894	3446.02
784.75	2797.02
788.605	2682.64
792.457	2461.52
796.307	1846.31
800.156	1635.04
804.003	938.418
807.848	609.297
811.691	361.744
815.532	3.051
819.371	325.307
823.209	305.936
827.045	596.113
830.878	607.703
834.71	601.701
838.54	428.283
842.369	216.664
846.195	154.031
850.02	894.508
853.842	1914.93
857.663	2895.25
861.482	4465.43
865.299	6005.44
869.115	8115.24
872.928	9994.76
876.74	11523.9
880.55	13192.8
884.358	14051.2
888.164	15039.8
891.969	14574.3
895.771	13616.3
899.572	12789.6
903.371	11587.5
907.168	9799.68
910.963	8313.9
914.757	6467.97
918.548	4719.17
922.338	3379.87
926.126	2296.56
929.912	1707.16
933.697	876.675
937.479	615.17
941.26	272.339
945.039	457.954
948.816	632.109
952.591	724.914
956.365	926.511
960.136	1538
963.906	1891.39
967.674	2192.52
971.441	2637.13
975.205	2774.11
978.968	2939.75
982.729	3279.92
986.488	3069.73
990.245	3256.21
994	3356.4
997.754	3821.52
1001.51	3963.37
1005.26	4360.81
1009	4456.59
1012.75	4281.24
1016.5	3884.76
1020.24	3527.13
1023.98	2848.34
1027.72	2258.38
1031.46	1547.25
1035.19	1114.93
1038.93	571.42
1042.66	336.586
1046.39	80.224
1050.12	107.913
1053.85	358.515
1057.57	402.514
1061.29	360.463
1065.02	272.239
1068.74	2.887
1072.45	496.003
1076.17	1097.73
1079.88	1888.3
1083.6	2537.63
1087.31	2711.55
1091.02	2726.27
1094.72	2316.94
1098.43	1839.89
1102.13	1667.4
1105.84	1200.67
1109.54	865.171
1113.24	798.912
1116.93	481.814
1120.63	444.201
1124.32	306.345
1128.01	268.376
1131.7	230.591
1135.39	372.901
1139.08	365.166
1142.76	516.84
1146.45	757.59
1150.13	1067.18
1153.81	1735.67
1157.48	2243.09
1161.16	3179.46
1164.84	3944.75
1168.51	4808.97
1172.18	5352.07
1175.85	5664.03
1179.52	5674.85
1183.18	5364.56
1186.85	4780.76
1190.51	4489.19
1194.17	4317.85
1197.83	4307.87
1201.48	4124.63
1205.14	3868.55
1208.79	3594.21
1212.44	3401.19
1216.09	3251.58
1219.74	3242.16
1223.39	3276.11
1227.03	3463.08
1230.68	3734.74
1234.32	3967.05
1237.96	4170.77
1241.6	4236.21
1245.23	4253.56
1248.87	4130.45
1252.5	3762.67
1256.13	3352.75
1259.76	2953.02
1263.39	2403.59
1267.02	2264.14
1270.64	1907.02
1274.26	1755.04
1277.88	1796.69
1281.5	1807.32
1285.12	1744.08
1288.74	1940.91
1292.35	2049.25
1295.96	2111.2
1299.57	2295.05
1303.18	2567.93
1306.79	2699.36
1310.4	2948.57
1314	3044.54
1317.6	3136.79
1321.2	3057.56
1324.8	3127.22
1328.4	3017.5
1331.99	2787.73
1335.59	2617.89
1339.18	2569.22
1342.77	2327.07
1346.36	2118.79
1349.95	1983.85
1353.53	1623.15
1357.12	1388.6
1360.7	987.72
1364.28	558.443
1367.86	505.329
1371.44	226.665
1375.01	14.296
1378.59	41.969
1382.16	3.728
1385.73	66.684
1389.3	127.459
1392.87	96.626
1396.43	120.265
1399.99	65.762
1403.56	24.771
1407.12	58.723
1410.68	261.367
1414.23	381.068
1417.79	657.037
1421.34	846.641
1424.9	1127.98
1428.45	1217.01
1431.99	1335.67
1435.54	1544.16
1439.09	1471.36
1442.63	1678.35
1446.17	1679.64
1449.71	1683.19
1453.26	1582.69
1456.79	1125.73
1460.33	1060.02
1463.86	863.317
1467.39	566.103
1470.92	390.871
1474.45	234.507
1477.98	134.592
1481.51	103.251
1485.03	63.312
1488.56	0.819
1492.08	154.977
1495.6	244.324
1499.11	267.917
1502.63	231.112
1506.14	305.569
1509.66	311.803
1513.17	273.939
1516.68	0
