Measurement: Raman, 514 nm, ccw, Raman Data Processed
Mineral: Titanite
Rruff sample: R040033
Ideal chemistry: CaTiSiO_5_
Locality: Brazil
Source: University of Arizona Mineral Museum
Description: Green flattened wedge-shaped single crystals
Measured chemistry: (Ca_0.97_Fe^3+^_0.03_)_Σ=1_(Ti_0.97_Al_0.03_)_Σ=1_Si_1.00_O_5_; Fe^3+^ assigned for charge balance
Pin_id: L00108
Orientation: Laser parallel to c [0 0 1]. Fiducial mark perpendicular to laser is parallel to b* (0 1 0)
Raman shift (cm-1)	intensity
51.466	0
55.666	382.568
59.863	9.52
64.059	48.482
68.253	565.088
72.445	1729.82
76.635	3175.66
80.823	3893.58
85.009	3999.55
89.193	4194.57
93.375	4469.71
97.554	4688.52
101.732	5050.55
105.908	5528.48
110.082	5782.74
114.254	5925.91
118.424	5613.55
122.592	5888.77
126.758	6464.14
130.922	6344.47
135.083	6121.66
139.243	6248.8
143.401	6698.93
147.557	6779.17
151.711	8474.94
155.863	12971.4
160.013	17288.2
164.161	17291.8
168.308	14173.6
172.452	12178.7
176.594	11572.4
180.734	11732.7
184.872	11743.6
189.008	11694.2
193.143	12634.4
197.275	14020.3
201.405	15945.7
205.534	17880.7
209.66	18776.3
213.784	19073.4
217.907	20038.4
222.027	21259.5
226.146	22125.6
230.263	22378
234.377	21608.7
238.49	21782.3
242.601	24177.6
246.709	27880.6
250.816	30647.1
254.921	29798.9
259.024	25380.5
263.125	20073.7
267.224	15404
271.321	12338.1
275.416	10336.7
279.51	9413.54
283.601	9079.5
287.69	9072.39
291.778	8505.06
295.863	9306.41
299.947	12312.3
304.029	15110.7
308.108	16918.5
312.186	17882.5
316.262	17915.3
320.336	15713.9
324.408	14400.8
328.478	14852.5
332.546	15411.6
336.612	14734.4
340.677	12305.1
344.739	9756.63
348.799	8088.94
352.858	6848.05
356.915	5963.95
360.969	5178.63
365.022	4252.08
369.073	2956.28
373.122	1585.23
377.169	589.908
381.215	88.632
385.258	323.348
389.299	486.278
393.339	1084.2
397.376	1561.86
401.412	1628.22
405.446	1351.77
409.478	387.244
413.508	1352.09
417.536	4264.49
421.562	7036.96
425.586	7080.47
429.609	5274.99
433.629	4118.49
437.648	3946.96
441.665	3938.38
445.68	4263.74
449.693	5244.07
453.704	7482.44
457.713	12051.1
461.721	19087
465.726	25145.2
469.73	22695.9
473.731	13540
477.731	7136.59
481.729	3852.62
485.725	2696.11
489.72	2603.01
493.712	2785.45
497.703	2949.51
501.691	3034.11
505.678	3151.16
509.663	3778.57
513.646	4811.12
517.627	5701.65
521.607	6625.07
525.584	8034.4
529.56	10498.6
533.534	13232.8
537.506	15749.8
541.476	18134.5
545.444	19140.6
549.41	19150.4
553.375	16802.7
557.337	13840.1
561.298	10889.9
565.257	7620.44
569.214	5685.51
573.17	6233.04
577.123	8254.38
581.075	11855.1
585.024	16800.3
588.972	23381.9
592.918	30483.3
596.863	37832.3
600.805	44908.1
604.746	49886.9
608.685	50228.5
612.621	46915.1
616.557	42813.7
620.49	37094.4
624.421	33061.4
628.351	27813.8
632.279	24461.8
636.205	21515.2
640.129	18643.9
644.051	16181.3
647.972	14389.6
651.89	13185.6
655.807	11511.6
659.722	10612.6
663.636	9608.74
667.547	8505.03
671.457	7851.66
675.365	7140.59
679.271	6519.83
683.175	5878.73
687.077	5090.27
690.978	4673.44
694.877	4134.21
698.774	3723.67
702.669	3197.34
706.562	3005.55
710.454	2588.06
714.344	2204.04
718.232	1997.19
722.118	1763.36
726.002	1536.5
729.885	1272.55
733.766	1006.92
737.645	861.576
741.522	702.486
745.397	512.615
749.271	306.939
753.143	283.432
757.013	131.064
760.881	44.202
764.748	116.522
768.613	122.193
772.476	157.512
776.337	211.001
780.196	175.311
784.054	161.959
787.91	183.287
791.764	136.834
795.616	187.801
799.467	142.63
803.316	172.233
807.163	205.182
811.008	119.064
814.851	108.753
818.693	18.115
822.533	94.295
826.371	267.931
830.208	502.066
834.042	689.742
837.875	1082.92
841.706	1460.58
845.536	2130.71
849.363	3080.28
853.189	3983.26
857.013	4444.6
860.836	4190.28
864.656	3654.24
868.475	3394.41
872.292	3316.75
876.108	2783.18
879.922	2373.65
883.733	2207.12
887.544	2126.57
891.352	1786.01
895.159	1406.4
898.964	1306.37
902.767	1458.23
906.568	1975.3
910.368	2578.37
914.166	2479.32
917.962	1775.29
921.757	1041.79
925.55	623.491
929.341	405.62
933.13	270.165
936.918	225.993
940.703	159.665
944.488	114.705
948.27	122.97
952.051	131.189
955.83	211.734
959.607	297.22
963.383	344.664
967.156	429.533
970.928	530.567
974.699	651.602
978.468	783.021
982.234	998.936
986	1155.6
989.763	1414.49
993.525	1524.73
997.285	1475.5
1001.04	1362.24
1004.8	1455.41
1008.55	1562.33
1012.31	1657.81
1016.06	1605.74
1019.81	1534.74
1023.56	1468.96
1027.31	1143.43
1031.05	885.262
1034.79	672.146
1038.53	579.416
1042.27	473.977
1046.01	375.844
1049.75	273.019
1053.48	262.491
1057.22	174.264
1060.95	154.331
1064.68	181.719
1068.4	165.531
1072.13	161.929
1075.86	162.116
1079.58	222.254
1083.3	241.225
1087.02	296.894
1090.74	317.433
1094.45	256.235
1098.17	143.189
1101.88	70.346
1105.59	32.327
1109.3	32.568
1113.01	48.508
1116.71	13.335
1120.42	10.422
1124.12	2.619
1127.82	31.116
1131.52	4.939
1135.22	13.433
1138.91	30.204
1142.61	36.386
1146.3	11.972
1149.99	2.093
1153.68	26.838
1157.37	69.738
1161.06	127.467
1164.74	202.405
1168.42	256.12
1172.1	425.622
1175.78	758.918
1179.46	977.019
1183.14	912.932
1186.81	630.665
1190.48	518.228
1194.15	480.537
1197.83	537.763
1201.49	588.269
1205.16	556.951
1208.82	650.746
1212.49	694.145
1216.15	612.356
1219.81	517.43
1223.46	463.704
1227.12	446.703
1230.78	490.328
1234.43	549.882
1238.08	645.131
1241.73	721.757
1245.38	825.923
1249.03	830.23
1252.67	694.047
1256.31	536.649
1259.95	420.173
1263.6	320.589
1267.23	292.194
1270.87	247.307
1274.51	212.515
1278.14	189.823
1281.77	166.951
1285.4	181.71
1289.03	178.472
1292.66	210.121
1296.28	289.25
1299.91	333.854
1303.53	330.848
1307.15	369.476
1310.77	354.633
1314.38	386.656
1318	405.497
1321.61	391.206
1325.23	394.726
1328.84	353.112
1332.45	295.405
1336.06	248.606
1339.66	204.901
1343.27	201.923
1346.87	210.831
1350.47	189.721
1354.07	138.578
1357.67	146.322
1361.26	72.317
1364.86	69.978
1368.45	50.475
1372.04	26.822
1375.63	33.091
1379.22	10.434
1382.81	27.642
1386.39	7.116
1389.98	17.22
1393.56	11.481
1397.14	1.197
1400.72	9.038
1404.3	17.035
1407.87	11.776
1411.45	3.505
1415.02	2.486
1418.59	20.105
1422.16	24.387
1425.73	42.687
1429.29	60.023
1432.86	37.413
1436.42	67.884
1439.98	49.454
1443.54	78.001
1447.1	68.465
1450.66	82.908
1454.21	73.539
1457.77	62.018
1461.32	42.075
1464.87	54.715
1468.42	49.909
1471.96	51.152
1475.51	39.903
1479.06	8.743
1482.6	28.347
1486.14	27.078
1489.68	32.175
1493.22	11.978
1496.75	27.406
1500.29	1.846
1503.82	4.177
1507.35	25.936
1510.88	12.244
1514.41	14.547
1517.94	0
