Measurement: Raman, 514 nm, ccw, Raman Data Processed
Mineral: Titanite
Rruff sample: R050114
Ideal chemistry: CaTiSiO_5_
Locality: Isthak Valley Iskardu, Northern Areas Gilgit, Pakistan
Source: Syed Shah
Description: Yellowish-brown fragment
Measured chemistry: (Ca_0.99_Na_0.01_)(Ti_0.96_Al_0.03_Fe^3+^_0.01_)Si_1.00_O_4_(O_0.95_F_0.05_)
Pin_id: L00193
Orientation: Laser parallel to c* (0 0 1). Fiducial mark perpendicular to laser is parallel to -a [-1 0 0]
Raman shift (cm-1)	intensity
49.365	0
53.566	153.9
57.765	234.287
61.962	318.157
66.157	557.698
70.349	421.082
74.54	158.199
78.729	56.318
82.916	139.081
87.101	61.551
91.284	165.974
95.465	931.298
99.644	2153.72
103.82	3561.64
107.995	4747
112.168	5866.73
116.339	6949.37
120.508	7533.89
124.675	8491.49
128.84	9774.59
133.003	10282.6
137.164	9923.53
141.323	10127.2
145.48	10852.7
149.635	11456.3
153.788	13398.7
157.939	18021.2
162.088	22743.8
166.235	23206.6
170.38	19800.2
174.523	17444.5
178.664	16799.8
182.803	16876.3
186.94	17063.8
191.076	17002.7
195.209	17962.8
199.34	19534.2
203.47	21496.9
207.597	23501
211.722	24346.6
215.846	24896.9
219.967	25673.9
224.087	26139.6
228.204	27249.3
232.32	27789.1
236.434	27018.6
240.545	26608.9
244.655	28901.3
248.763	32764
252.869	34745.7
256.973	33154.8
261.075	28655.1
265.175	22917.8
269.273	18372.6
273.369	14949.4
277.463	13138.1
281.556	12208.6
285.646	11560.8
289.734	10904.6
293.821	9599.99
297.905	9666.9
301.988	11945.3
306.069	13295.2
310.147	13876.4
314.224	14638.8
318.299	14682.3
322.372	13936.7
326.443	14182.2
330.512	15358.7
334.579	16296.3
338.645	15285
342.708	13364.8
346.769	10565.7
350.829	8647.68
354.887	7800.8
358.942	7375.06
362.996	6770.46
367.048	5997.01
371.098	4814.72
375.146	3383.6
379.192	2105.68
383.236	892.22
387.279	350.303
391.319	151.106
395.358	663.042
399.394	1152.44
403.429	1401.18
407.462	1197.15
411.493	813.655
415.522	40.141
419.549	1824.84
423.575	4306.08
427.598	5340.86
431.619	4427.16
435.639	3694.98
439.657	3734.32
443.673	4095.16
447.687	4777.52
451.699	5841.38
455.709	8196.75
459.717	12443.6
463.724	18662.1
467.728	24802.2
471.731	24754
475.732	16707.3
479.731	8662.41
483.728	3819.19
487.723	2008.67
491.716	1369.9
495.708	1359.88
499.697	1525.78
503.685	1795.7
507.671	2257.67
511.655	2944.78
515.637	3679.98
519.617	4254.21
523.596	5430.48
527.572	7288.79
531.547	9449.19
535.52	12231.7
539.491	14686.2
543.46	17062.6
547.427	18600.8
551.393	18354.7
555.356	16801.7
559.318	13639.2
563.278	10860.7
567.236	7801.05
571.192	5354.12
575.147	5476.66
579.099	7758.38
583.05	11661.9
586.999	16267.2
590.946	21554.2
594.891	28153
598.834	33693.5
602.776	38565.6
606.715	40369.5
610.653	39385
614.589	36092.3
618.523	32883.9
622.456	28651.1
626.386	24860.8
630.315	21459.2
634.242	19135
638.167	17123.5
642.09	14932
646.012	13164.5
649.931	11447
653.849	10461.4
657.765	9568.76
661.679	8672.32
665.592	7739.61
669.502	6910.96
673.411	6605.45
677.318	5873.32
681.223	5299.85
685.126	4743.7
689.028	4260.22
692.927	3854.75
696.825	3632.36
700.721	3195.21
704.616	2857.74
708.508	2599.81
712.399	2203.12
716.288	1946.34
720.175	1888.15
724.06	1499.04
727.944	1217.78
731.825	1083.1
735.705	943.775
739.584	832.668
743.46	750.739
747.334	590.953
751.207	501.275
755.078	391.667
758.947	236.092
762.815	85.51
766.68	11.874
770.544	54.871
774.406	97.828
778.267	63.067
782.125	64.569
785.982	141.462
789.837	130.779
793.69	89.309
797.542	39.426
801.391	41.132
805.239	94.834
809.085	146.271
812.93	153.07
816.772	125.656
820.613	147.604
824.452	98.174
828.29	85.808
832.125	81.186
835.959	96.315
839.791	92.297
843.621	60.738
847.45	26.087
851.277	48.22
855.102	64.877
858.925	166.026
862.746	234.863
866.566	334.492
870.384	525.98
874.2	619.41
878.015	744.774
881.828	977.021
885.639	1258.11
889.448	1480.03
893.256	1435.98
897.061	1236.49
900.865	1260.29
904.668	1527.11
908.468	2133.11
912.267	2896.07
916.064	2965.77
919.86	2212.9
923.653	1546.7
927.445	1057.84
931.236	885.979
935.024	710.28
938.811	633.197
942.596	598.299
946.379	572.517
950.161	593.269
953.94	630.231
957.719	679.355
961.495	668.942
965.27	678.101
969.043	705.33
972.814	765.086
976.583	743.564
980.351	759.79
984.117	744.291
987.882	732.945
991.644	713.635
995.405	662.32
999.165	711.628
1002.92	752.29
1006.68	849.93
1010.43	983.243
1014.18	1079.24
1017.93	1140.35
1021.68	1110.17
1025.43	1061
1029.18	875.183
1032.92	679.626
1036.66	465.347
1040.4	414.363
1044.14	342.687
1047.88	321.319
1051.62	270.263
1055.35	241.524
1059.08	215.114
1062.81	198.039
1066.54	184.318
1070.27	191.976
1073.99	206.048
1077.72	248.603
1081.44	271.599
1085.16	359.92
1088.88	432.223
1092.59	456.28
1096.31	414.698
1100.02	317.29
1103.73	220.672
1107.44	200.062
1111.15	185.708
1114.86	159.733
1118.57	117.249
1122.27	88.759
1125.97	88.027
1129.67	59.807
1133.37	34.839
1137.07	26.117
1140.76	3.289
1144.45	1.642
1148.15	15.1
1151.84	0.408
1155.53	14.095
1159.21	53.878
1162.9	80.689
1166.58	130.488
1170.26	179.24
1173.94	304.898
1177.62	480.459
1181.3	561.931
1184.97	473.212
1188.65	361.627
1192.32	317.389
1195.99	334.544
1199.66	381.039
1203.33	352.328
1206.99	365.139
1210.65	369.823
1214.32	374.54
1217.98	310.607
1221.64	269.97
1225.29	241.734
1228.95	253.018
1232.6	298.269
1236.26	289.876
1239.91	312.766
1243.56	303.219
1247.2	332.026
1250.85	320.655
1254.49	272.536
1258.13	179.904
1261.78	174.934
1265.41	120.765
1269.05	129.486
1272.69	94.738
1276.32	106.208
1279.95	99.422
1283.59	88.438
1287.21	98.697
1290.84	115.456
1294.47	122.891
1298.09	145.674
1301.72	202.342
1305.34	192.758
1308.96	166.685
1312.58	206.048
1316.19	206.618
1319.81	178.05
1323.42	182.266
1327.03	183.992
1330.64	170.976
1334.25	157.662
1337.86	174.378
1341.46	205.033
1345.07	214.832
1348.67	219.521
1352.27	246.135
1355.87	203.946
1359.46	175.758
1363.06	130.166
1366.65	96.616
1370.25	61.71
1373.84	28.576
1377.43	34.984
1381.02	19.159
1384.6	1.428
1388.18	2.849
1391.77	21.976
1395.35	23.97
1398.93	15.154
1402.51	29.399
1406.08	21.596
1409.66	29.701
1413.23	18.299
1416.8	31.398
1420.37	17.53
1423.94	38.657
1427.51	58.802
1431.08	65.996
1434.64	101.254
1438.2	107.584
1441.76	121.994
1445.32	143.497
1448.88	154.14
1452.43	183.099
1455.99	177.181
1459.54	156.841
1463.09	168.875
1466.64	115.146
1470.19	93.18
1473.74	68.459
1477.28	41.089
1480.83	37.01
1484.37	42.022
1487.91	27.463
1491.45	37.033
1494.98	4.211
1498.52	3.75
1502.05	18.439
1505.59	6.169
1509.12	28.923
1512.65	16.693
1516.17	25.669
1519.7	2.868
1523.23	2.861
