Measurement: Raman, 514 nm, ccw, Raman Data Processed
Mineral: Titanite
Rruff sample: R040033
Ideal chemistry: CaTiSiO_5_
Locality: Brazil
Source: University of Arizona Mineral Museum
Description: Green flattened wedge-shaped single crystals
Measured chemistry: (Ca_0.97_Fe^3+^_0.03_)_Σ=1_(Ti_0.97_Al_0.03_)_Σ=1_Si_1.00_O_5_; Fe^3+^ assigned for charge balance
Pin_id: L00108
Orientation: Laser parallel to c [0 0 1]. Fiducial mark perpendicular to laser is parallel to b* (0 1 0)
Raman shift (cm-1)	intensity
51.466	0
55.666	83.815
59.863	27.674
64.059	247.682
68.253	1210.72
72.445	2407.71
76.635	3536.98
80.823	3837.28
85.009	3418
89.193	2911.48
93.375	2054.7
97.554	1031.84
101.732	407.562
105.908	212.919
110.082	28.306
114.254	26.613
118.424	83.254
122.592	114.684
126.758	47.245
130.922	16.631
135.083	109.221
139.243	461.914
143.401	844.168
147.557	634.282
151.711	856.444
155.863	1653.75
160.013	2744.26
164.161	3694.08
168.308	4431.2
172.452	5416.49
176.594	6356.64
180.734	7172.64
184.872	7422.29
189.008	7070.55
193.143	7415.47
197.275	8054.09
201.405	8545.46
205.534	8527.58
209.66	8265.48
213.784	8161.16
217.907	8429.62
222.027	9005.34
226.146	9395.94
230.263	9104.25
234.377	8298.64
238.49	8027.81
242.601	9032.62
246.709	10496
250.816	11364.8
254.921	10852
259.024	9307.39
263.125	7240.68
267.224	5166.34
271.321	3580.3
275.416	2709.53
279.51	2551.37
283.601	3150.53
287.69	4475.49
291.778	5071.72
295.863	5118.02
299.947	6484.93
304.029	8980.62
308.108	14767.1
312.186	28131.3
316.262	39787.4
320.336	31561.4
324.408	19569.2
328.478	13458.8
332.546	10801.2
336.612	9091.5
340.677	7531.48
344.739	6200.09
348.799	5053.33
352.858	3870.2
356.915	2846.71
360.969	2087.85
365.022	1427.64
369.073	842.075
373.122	287.157
377.169	54.15
381.215	61.45
385.258	149.537
389.299	412.407
393.339	820.222
397.376	1442.96
401.412	2582.6
405.446	4400.15
409.478	8296.58
413.508	15970.9
417.536	27984.1
421.562	36173.2
425.586	29733.2
429.609	16834
433.629	8449.77
437.648	4062.37
441.665	1504.84
445.68	324.232
449.693	564.445
453.704	862.25
457.713	749.449
461.721	251.682
465.726	247.757
469.73	857.093
473.731	1464.48
477.731	2410.8
481.729	3659.01
485.725	4501.1
489.72	5071.11
493.712	5120.04
497.703	4630.9
501.691	3915.68
505.678	3514.41
509.663	3586.07
513.646	3769.68
517.627	4073.24
521.607	4164.76
525.584	4673.24
529.56	5916.68
533.534	7261.09
537.506	8419.11
541.476	9095.81
545.444	9091.52
549.41	8663.89
553.375	7396.26
557.337	6061.63
561.298	5187.01
565.257	5107.39
569.214	6395.77
573.17	8105.15
577.123	10133.5
581.075	13322.9
585.024	17513.2
588.972	23045.6
592.918	28872.9
596.863	35674.2
600.805	42031.1
604.746	46326.8
608.685	46853.9
612.621	43633.6
616.557	39809.2
620.49	34572.5
624.421	30705.5
628.351	25786.6
632.279	22515.1
636.205	19850.2
640.129	17073
644.051	14953.7
647.972	13166.2
651.89	12147.2
655.807	10633.4
659.722	9765.64
663.636	8847.92
667.547	7697.21
671.457	7143.49
675.365	6737.77
679.271	5928.01
683.175	5500.23
687.077	4657.41
690.978	4379.54
694.877	3992.71
698.774	3705.21
702.669	3103.83
706.562	2889.35
710.454	2503.77
714.344	2187.05
718.232	1942.33
722.118	1729.17
726.002	1517.98
729.885	1412.59
733.766	1163
737.645	1029.19
741.522	665.132
745.397	507.824
749.271	312.242
753.143	158.371
757.013	17.18
760.881	245.528
764.748	272.861
768.613	161.845
772.476	199.077
776.337	48.075
780.196	37.472
784.054	52.257
787.91	58.748
791.764	226.719
795.616	286.768
799.467	419.708
803.316	595.484
807.163	808.645
811.008	955.388
814.851	1358.35
818.693	2074.67
822.533	3054.33
826.371	4151.29
830.208	5282.56
834.042	6415.15
837.875	7880.02
841.706	9692.17
845.536	11708.6
849.363	14454.3
853.189	16761.1
857.013	18411
860.836	19937
864.656	22726.9
868.475	26912.8
872.292	26462.7
876.108	19923.5
879.922	14377.2
883.733	10962.8
887.544	9080.26
891.352	6826.59
895.159	5354.76
898.964	5012.75
902.767	6137.55
906.568	8723.12
910.368	11428.1
914.166	11009.3
917.962	7323.03
921.757	4003.88
925.55	2030.52
929.341	1015.4
933.13	461.534
936.918	150.443
940.703	37.646
944.488	181.348
948.27	206.93
952.051	122.566
955.83	7.207
959.607	153.783
963.383	439.832
967.156	795.608
970.928	1080.18
974.699	1389.26
978.468	1467.12
982.234	1748.07
986	1992.94
989.763	2268.42
993.525	2414.4
997.285	2256.57
1001.04	2025.56
1004.8	1982.38
1008.55	2059
1012.31	2205.11
1016.06	2258.51
1019.81	2439.3
1023.56	2522.49
1027.31	2394.07
1031.05	2229.04
1034.79	2095.28
1038.53	1942.11
1042.27	1634.21
1046.01	1212.68
1049.75	923.524
1053.48	711.739
1057.22	535.321
1060.95	447.282
1064.68	350.777
1068.4	351.956
1072.13	291.847
1075.86	360.368
1079.58	524.548
1083.3	656.259
1087.02	895.075
1090.74	878.861
1094.45	789.285
1098.17	391.993
1101.88	161.64
1105.59	57.238
1109.3	14.367
1113.01	28.088
1116.71	13.655
1120.42	17.57
1124.12	57.82
1127.82	20.575
1131.52	37.281
1135.22	27.419
1138.91	64.146
1142.61	20.543
1146.3	39.7
1149.99	77.429
1153.68	155.163
1157.37	324.036
1161.06	562.653
1164.74	856.856
1168.42	1213.65
1172.1	2122.05
1175.78	3561.05
1179.46	4424.65
1183.14	3940.88
1186.81	2770.72
1190.48	2130.18
1194.15	2250.29
1197.83	2381.03
1201.49	2351.43
1205.16	2235.48
1208.82	2431.55
1212.49	2582.98
1216.15	2413.03
1219.81	2039.93
1223.46	2064.09
1227.12	2171.81
1230.78	2475.78
1234.43	2674.07
1238.08	2971.07
1241.73	3325.22
1245.38	3623.82
1249.03	3689.39
1252.67	3059.76
1256.31	2440.18
1259.95	1915.61
1263.6	1558.42
1267.23	1394.01
1270.87	1273.76
1274.51	1068.95
1278.14	966.388
1281.77	896.176
1285.4	974.405
1289.03	1051.68
1292.66	1296.6
1296.28	1529.49
1299.91	1732.66
1303.53	1818.36
1307.15	1808.16
1310.77	1773.76
1314.38	1910.18
1318	1867.46
1321.61	1933.4
1325.23	1759.87
1328.84	1476.55
1332.45	1218.67
1336.06	1030.56
1339.66	879.586
1343.27	797.351
1346.87	679.007
1350.47	686.965
1354.07	536.089
1357.67	441.864
1361.26	341.777
1364.86	274.018
1368.45	159.446
1372.04	98.828
1375.63	50.838
1379.22	47.557
1382.81	30.554
1386.39	7.574
1389.98	14.605
1393.56	3.821
1397.14	18.02
1400.72	3.027
1404.3	68.657
1407.87	31.33
1411.45	2.814
1415.02	29.412
1418.59	53.954
1422.16	2.551
1425.73	28.93
1429.29	77.439
1432.86	43.97
1436.42	75.581
1439.98	118.303
1443.54	126.212
1447.1	118.335
1450.66	99.543
1454.21	115.583
1457.77	104.467
1461.32	54.975
1464.87	12.671
1468.42	36.575
1471.96	79.251
1475.51	28.589
1479.06	11.805
1482.6	25.952
1486.14	10.427
1489.68	10.861
1493.22	47.693
1496.75	562.476
1500.29	285.167
1503.82	77.9
1507.35	69.299
1510.88	64.035
1514.41	36.439
1517.94	0.379
1521.46	0
