Measurement: Raman, 514 nm, ccw, Raman Data Processed
Mineral: Titanite
Rruff sample: R050039
Ideal chemistry: CaTiSiO_5_
Locality: Kingman, Arizona, USA
Source: University of Arizona Mineral Museum
Description: Black fragment from a single crystal
Measured chemistry: (Ca_0.95_Y_0.05_)(Ti_0.85_Al_0.10_Fe^3+^_0.06_)Si_1.00_O_4_(O_0.93_F_0.07_)
Pin_id: L00457
Orientation: Laser parallel to -b* (0 -1 0). Fiducial mark perpendicular to laser is parallel to -c [0 0 -1]
Raman shift (cm-1)	intensity
78.926	0
83.128	481.995
87.329	1584.49
91.527	2776.64
95.723	4123.57
99.917	4201.57
104.109	3529.32
108.298	2962.77
112.486	2643.35
116.672	1186.53
120.855	259.923
125.036	60.218
129.216	96.134
133.393	92.19
137.568	110.75
141.741	15.584
145.911	106.434
150.08	121.493
154.247	160.757
158.411	184.777
162.574	283.397
166.734	173.852
170.893	215.809
175.049	349.562
179.203	435.159
183.355	582.599
187.505	991.922
191.653	1489.16
195.799	1944.83
199.943	2538.98
204.084	3175.09
208.224	3872.52
212.362	4592.96
216.497	5364.61
220.631	6018.2
224.762	6345.88
228.891	5829.69
233.018	5349.49
237.144	4902.48
241.267	4526.36
245.388	4249.37
249.507	4342.69
253.624	4501.95
257.739	4434.6
261.852	4169.67
265.962	4336.72
270.071	4388.94
274.178	4465.15
278.283	4375.69
282.385	4218.07
286.486	3742.14
290.584	3027.79
294.681	2421.23
298.775	2221.92
302.868	2110.7
306.958	2026.8
311.047	2198.67
315.133	2471.99
319.217	2546.36
323.299	2241.73
327.38	2118.04
331.458	1805.24
335.534	1623.31
339.608	1262.24
343.681	1601.99
347.751	1642.55
351.819	1993.89
355.885	2255.39
359.949	2650.36
364.011	2720.89
368.071	2904.89
372.129	2766.02
376.185	2495.86
380.239	2620.3
384.291	2743.61
388.341	2912.47
392.389	2991.24
396.435	3078.31
400.479	3375.52
404.521	3653.51
408.561	4050.3
412.599	4328.28
416.636	4866.72
420.67	4625.57
424.702	4524.8
428.732	4264.37
432.76	3614.26
436.786	3084.47
440.81	2625.03
444.832	2085.93
448.852	1847.94
452.87	1728.69
456.887	1690.47
460.901	1462.56
464.913	2134.96
468.923	2227.62
472.931	2540.44
476.938	3003.37
480.942	3166.4
484.944	3059.53
488.945	2752.74
492.943	2236.02
496.94	1789.35
500.934	1382.72
504.927	1076.12
508.917	719.552
512.906	448.989
516.892	136.426
520.877	50.496
524.86	248.551
528.841	328.297
532.82	510.18
536.796	307.272
540.771	161.449
544.744	80.175
548.715	179.973
552.684	769.747
556.652	1359.48
560.617	2779.19
564.58	4148.87
568.541	5608.53
572.501	6538.19
576.458	6717.84
580.414	5957.51
584.367	5225.41
588.319	4596.9
592.268	3916.64
596.216	3569.66
600.162	3043.3
604.106	2906.31
608.048	2744.04
611.988	2554.15
615.926	2457.4
619.862	2527.47
623.797	2617.58
627.729	2727.71
631.659	2647.88
635.588	2558.11
639.515	2808.41
643.439	2688.77
647.362	2599.19
651.283	2629.7
655.202	2610.28
659.119	2260.96
663.034	2181.72
666.947	2022.59
670.859	1893.56
674.768	1672.27
678.676	1423.16
682.581	1465.62
686.485	1142.44
690.387	926.845
694.287	876.359
698.185	708.632
702.081	729.127
705.975	611.902
709.868	535.561
713.758	449.683
717.647	334.445
721.533	340.077
725.418	206.717
729.301	284.484
733.182	103.39
737.061	173.403
740.939	49.319
744.814	36.409
748.688	29.245
752.559	172.753
756.429	133.229
760.297	268.838
764.163	85.832
768.027	109.004
771.89	6.573
775.75	142.64
779.609	179.214
783.465	496.3
787.32	573.898
791.173	552.014
795.024	700.646
798.873	979.798
802.721	1199.47
806.566	1079.66
810.41	1310.38
814.252	1661.62
818.092	1943.38
821.93	2285.67
825.766	2788.49
829.601	3301.84
833.433	3966.03
837.264	4991.41
841.093	5978.23
844.92	7096.71
848.745	8836.93
852.568	10818.8
856.39	13472
860.209	16306.1
864.027	20080.8
867.843	23332.2
871.657	27151.2
875.47	29953.9
879.28	32000.8
883.089	32985.6
886.896	33000.7
890.701	32325.8
894.504	30746.3
898.305	26767.2
902.105	23204.9
905.902	19421.3
909.698	15833.8
913.492	12484.9
917.285	10093.9
921.075	7511.12
924.864	5839.5
928.65	4379.32
932.435	3299.29
936.218	2469.49
940	1999.87
943.779	1300.44
947.557	1151.19
951.333	832.122
955.107	873.219
958.879	994.477
962.65	1105.89
966.418	1427.44
970.185	1619.12
973.95	1850.93
977.714	1882.85
981.475	1514.88
985.235	1367
988.993	1319.19
992.749	1051.44
996.503	883.728
1000.26	736.016
1004.01	588.285
1007.75	450.514
1011.5	412.686
1015.25	184.788
1018.99	43.288
1022.73	127.928
1026.47	161.669
1030.21	212.636
1033.95	105.068
1037.68	218.867
1041.41	204.041
1045.15	180.354
1048.88	37.66
1052.6	124.237
1056.33	115.668
1060.05	326.88
1063.78	728.08
1067.5	1299.29
1071.21	2190.49
1074.93	3171.9
1078.65	4233.68
1082.36	5335.89
1086.07	6038.59
1089.78	6091.78
1093.49	5445.19
1097.2	4438.65
1100.9	3292.04
1104.6	2635.3
1108.3	1998.38
1112	1461.25
1115.7	1323.91
1119.4	1346.35
1123.09	1318.57
1126.78	1270.56
1130.47	1392.33
1134.16	1493.87
1137.85	1875.19
1141.54	2356.27
1145.22	2987.13
1148.9	3817.75
1152.58	4928.15
1156.26	6458.3
1159.94	7998.18
1163.61	9747.76
1167.28	11415.3
1170.95	13235.3
1174.62	14215
1178.29	14023.4
1181.96	13246.2
1185.62	12434
1189.29	11199.7
1192.95	10575.8
1196.61	9829.03
1200.26	9473.38
1203.92	8960.57
1207.57	8452.19
1211.23	7785.73
1214.88	7160.88
1218.53	6773.49
1222.17	6560.08
1225.82	6177.75
1229.46	6325.21
1233.11	6496.55
1236.74	6489.22
1240.38	6094.94
1244.02	5754.77
1247.66	5355.56
1251.29	4703.33
1254.92	4178.76
1258.55	3382.62
1262.18	3026.39
1265.81	2515.26
1269.43	2093.64
1273.06	1707.13
1276.68	1570.54
1280.3	1493.87
1283.91	1247.14
1287.53	1260.35
1291.15	1383.49
1294.76	1426.4
1298.37	1488.82
1301.98	1479.54
1305.59	1547.55
1309.19	1583.14
1312.8	1517.6
1316.4	1451.69
1320	1305.73
1323.6	1249.82
1327.2	1163.9
1330.8	1017.87
1334.39	961.529
1337.98	771.616
1341.58	645.061
1345.16	556.151
1348.75	348.674
1352.34	227.326
1355.92	160.284
1359.51	84.005
1363.09	103.098
1366.67	123.814
1370.24	202.183
1373.82	256.5
1377.39	196.129
1380.97	91.195
1384.54	30.148
1388.11	245.527
1391.68	373.011
1395.24	629.314
1398.81	823.432
1402.37	1079.34
1405.93	1261.03
1409.49	1572.49
1413.05	1833.87
1416.6	2215.47
1420.16	2657.44
1423.71	2889.82
1427.26	3252.66
1430.81	3595.84
1434.36	3841.26
1437.91	4098.43
1441.45	4082.53
1444.99	3972.14
1448.54	3585.81
1452.08	3371.15
1455.61	3104.71
1459.15	2927.48
1462.68	2558.13
1466.22	2223.07
1469.75	1871.4
1473.28	1580.4
1476.81	1157.89
1480.33	727.45
1483.86	534.885
1487.38	336.487
1490.9	156.179
1494.42	33.151
1497.94	77.715
1501.46	139.26
1504.97	188.328
1508.49	80.796
1512	27.763
1515.51	0.477
