Measurement: Raman, 514 nm, ccw, Raman Data Processed
Mineral: Titanite
Rruff sample: R040033
Ideal chemistry: CaTiSiO_5_
Locality: Brazil
Source: University of Arizona Mineral Museum
Description: Green flattened wedge-shaped single crystals
Measured chemistry: (Ca_0.97_Fe^3+^_0.03_)_Σ=1_(Ti_0.97_Al_0.03_)_Σ=1_Si_1.00_O_5_; Fe^3+^ assigned for charge balance
Pin_id: L00395
Orientation: Laser parallel to [-1 0 -1]. Fiducial mark perpendicular to laser is parallel to -b* (0 -1 0)
Raman shift (cm-1)	intensity
51.466	0
55.666	253.44
59.863	181.903
64.059	107.907
68.253	46.137
72.445	684.894
76.635	1489.28
80.823	2171.67
85.009	2292.34
89.193	2350.65
93.375	2288.32
97.554	2190.77
101.732	2397.7
105.908	2584.29
110.082	2673.9
114.254	2893.66
118.424	3113.49
122.592	3665.84
126.758	4536.51
130.922	4991.51
135.083	5374.91
139.243	5812.98
143.401	6672.94
147.557	6253.22
151.711	7315.88
155.863	11746.1
160.013	17624.3
164.161	18002.8
168.308	14942.1
172.452	13418.2
176.594	13990.5
180.734	15194.9
184.872	15477.5
189.008	14852.4
193.143	15054.5
197.275	15563.8
201.405	16741.4
205.534	18800.1
209.66	19127
213.784	18188.1
217.907	18506.1
222.027	19240
226.146	20136.5
230.263	20809
234.377	20982.3
238.49	21682.6
242.601	24752.1
246.709	30403.2
250.816	35704.3
254.921	37506
259.024	33308
263.125	25208.7
267.224	18969.1
271.321	15216.7
275.416	13823.4
279.51	13727
283.601	14435.4
287.69	15838.3
291.778	13914.7
295.863	10361.5
299.947	11273.5
304.029	12848.8
308.108	12605.4
312.186	13259.9
316.262	14341.1
320.336	13120
324.408	12384.4
328.478	13805.5
332.546	15281.2
336.612	14959.5
340.677	12701.5
344.739	10475
348.799	8728.25
352.858	7328.07
356.915	6536.52
360.969	5921.57
365.022	5341.24
369.073	4504.52
373.122	3545.41
377.169	2331.9
381.215	860.076
385.258	205.551
389.299	126.668
393.339	768.829
397.376	1291.53
401.412	1529.31
405.446	1405.23
409.478	796.62
413.508	468.07
417.536	2841.16
421.562	5469.16
425.586	5871.03
429.609	4187.76
433.629	3101.33
437.648	2813.72
441.665	2547.92
445.68	2702.91
449.693	3297.71
453.704	4654.28
457.713	7820.64
461.721	12771.8
465.726	17438.7
469.73	15322.5
473.731	7992.14
477.731	3629.82
481.729	1594.6
485.725	1119.56
489.72	1100.72
493.712	1318.16
497.703	1459.85
501.691	1557.81
505.678	1937.02
509.663	2473.41
513.646	3037.95
517.627	3730.68
521.607	4613.58
525.584	5894.72
529.56	7987.14
533.534	10500.7
537.506	12967.4
541.476	14643
545.444	14842.5
549.41	14317.8
553.375	12056.4
557.337	9422.6
561.298	6816.37
565.257	4748.89
569.214	3878.77
573.17	4920.86
577.123	7148.46
581.075	10149.3
585.024	14474.5
588.972	20159.9
592.918	26739.6
596.863	34786.6
600.805	43610.7
604.746	50712.1
608.685	53505.8
612.621	51415.6
616.557	47076.6
620.49	40858.3
624.421	35572.6
628.351	29852.3
632.279	25646.9
636.205	22072.4
640.129	18884.7
644.051	16301.9
647.972	14553.5
651.89	13213
655.807	11514.1
659.722	10402.6
663.636	9515.47
667.547	8383.31
671.457	7574.59
675.365	6961.14
679.271	6288.52
683.175	5633.54
687.077	5031.08
690.978	4676.64
694.877	4128.77
698.774	3714.51
702.669	3162.73
706.562	2968.38
710.454	2589.14
714.344	2351.76
718.232	2114.22
722.118	1769.68
726.002	1597.47
729.885	1384.96
733.766	1180.86
737.645	949.097
741.522	721.657
745.397	543.512
749.271	453.764
753.143	326.113
757.013	185.653
760.881	177.351
764.748	91.164
768.613	57.058
772.476	48.596
776.337	26.708
780.196	47.799
784.054	68.802
787.91	101.757
791.764	145.521
795.616	198.907
799.467	158.151
803.316	165.786
807.163	126.719
811.008	126.619
814.851	130.982
818.693	45.021
822.533	45.263
826.371	73.834
830.208	76.835
834.042	120.121
837.875	99.854
841.706	44.021
845.536	50.668
849.363	165.352
853.189	261.335
857.013	323.737
860.836	390.564
864.656	458.796
868.475	788.396
872.292	1141.31
876.108	1463.47
879.922	1887.82
883.733	2185.07
887.544	1836.61
891.352	1177.83
895.159	738.784
898.964	570.232
902.767	597.457
906.568	841.231
910.368	1127.72
914.166	1206.72
917.962	885.956
921.757	621.898
925.55	405.271
929.341	357.383
933.13	310.408
936.918	318.305
940.703	322.688
944.488	326.049
948.27	376.05
952.051	427.779
955.83	432.497
959.607	471.88
963.383	434.176
967.156	456.734
970.928	411.664
974.699	400.967
978.468	442.917
982.234	440.118
986	416.808
989.763	396.589
993.525	341.865
997.285	395.945
1001.04	487.891
1004.8	615.621
1008.55	692.593
1012.31	786.936
1016.06	790.786
1019.81	725.944
1023.56	650.3
1027.31	450.943
1031.05	297.899
1034.79	209.187
1038.53	176.79
1042.27	130.698
1046.01	102.906
1049.75	141.414
1053.48	115.106
1057.22	157.311
1060.95	134.833
1064.68	212.736
1068.4	202.058
1072.13	271.836
1075.86	239.392
1079.58	201.148
1083.3	149.88
1087.02	113.732
1090.74	90.828
1094.45	83.2
1098.17	46.972
1101.88	48.41
1105.59	44.532
1109.3	49.151
1113.01	39.345
1116.71	13.406
1120.42	31.287
1124.12	50.257
1127.82	18.793
1131.52	22.92
1135.22	45.99
1138.91	54.164
1142.61	68.263
1146.3	65.545
1149.99	45.701
1153.68	72.096
1157.37	68.826
1161.06	97.612
1164.74	85.651
1168.42	90.715
1172.1	94.799
1175.78	114.431
1179.46	117.718
1183.14	135.801
1186.81	101.822
1190.48	104.919
1194.15	86.356
1197.83	83.937
1201.49	100.028
1205.16	89.085
1208.82	78.905
1212.49	76.76
1216.15	62.911
1219.81	71.797
1223.46	44.503
1227.12	30.185
1230.78	21.314
1234.43	35.488
1238.08	9.172
1241.73	17.21
1245.38	38.641
1249.03	23.799
1252.67	27.75
1256.31	8.18
1259.95	0.711
1263.6	4.746
1267.23	6.105
1270.87	15.464
1274.51	1.907
1278.14	3.159
1281.77	3.231
1285.4	11.049
1289.03	0.932
1292.66	13.278
1296.28	27.298
1299.91	17.664
1303.53	7.57
1307.15	14.096
1310.77	7.176
1314.38	5.46
1318	6.763
1321.61	13.004
1325.23	24.184
1328.84	1.327
1332.45	15.446
1336.06	26.555
1339.66	8.663
1343.27	14.772
1346.87	24.881
1350.47	30.942
1354.07	12.051
1357.67	5.164
1361.26	3.385
1364.86	14.455
1368.45	5.81
1372.04	10.674
1375.63	7.422
1379.22	4.383
1382.81	4.4
1386.39	9.981
1389.98	2.321
1393.56	1.576
1397.14	6.241
1400.72	15.176
1404.3	2.988
1407.87	13.824
1411.45	21.613
1415.02	15.784
1418.59	9.343
1422.16	22.065
1425.73	7.197
1429.29	27.312
1432.86	30.359
1436.42	42.68
1439.98	31.806
1443.54	41.341
1447.1	66.934
1450.66	60.773
1454.21	77.131
1457.77	66.206
1461.32	45.782
1464.87	49.255
1468.42	64.778
1471.96	51.585
1475.51	59.274
1479.06	30.309
1482.6	35.088
1486.14	21.476
1489.68	34.282
1493.22	27.479
1496.75	27.93
1500.29	19.502
1503.82	35.284
1507.35	18.505
1510.88	17.062
1514.41	16.634
1517.94	1.943
