Measurement: Raman, 514 nm, ccw, Raman Data Processed
Mineral: Titanite
Rruff sample: R050124
Ideal chemistry: CaTiSiO_5_
Locality: Capelinha, Minas Gerais, Brazil
Source: Carlos and Paulo Vasconcelos
Description: Yellow tabular crystal
Measured chemistry: Ca_1.00_(Ti_0.93_Al_0.05_Fe^3+^_0.02_)Si_1.00_O_4_(O)_1.00_
Pin_id: M00259
Orientation: Laser parallel to c* (0 0 1). Fiducial mark perpendicular to laser is parallel to a [1 0 0]
Raman shift (cm-1)	intensity
151.469	0
155.635	57.86
159.799	177.071
163.961	1053.3
168.121	1325.65
172.278	1597.79
176.434	2902.19
180.587	4160.84
184.739	4287.49
188.888	3543.24
193.035	4030.75
197.18	4825.83
201.324	4983.05
205.465	4699.27
209.603	5080.02
213.74	4724.7
217.875	4260.28
222.008	5283.77
226.139	6375.62
230.267	6018.68
234.394	5080.94
238.518	4947.45
242.641	6010.34
246.761	7351.22
250.879	8600.98
254.996	9520.11
259.11	8028.9
263.222	5583.3
267.332	3975.9
271.44	2739.35
275.546	1495.33
279.65	785.485
283.752	1626.26
287.852	3467.57
291.95	3969.35
296.046	3021.27
300.14	3823.16
304.231	6619.56
308.321	10886.5
312.409	22543.7
316.495	40788.5
320.578	35928.2
324.66	21255
328.739	13180
332.817	11000.6
336.892	9135.58
340.966	6753.77
345.037	5104.51
349.107	4597.24
353.174	3711.5
357.24	1946.96
361.303	1253.34
365.365	1320.45
369.424	748.148
373.481	303.832
377.537	840.236
381.59	459.97
385.642	115.415
389.691	442.211
393.738	139.886
397.784	941.869
401.827	2343.33
405.868	3334.58
409.908	6565.64
413.945	14236.5
417.98	27407.3
422.014	37597.9
426.045	31418.1
430.075	18366.1
434.102	9559.96
438.127	4362.82
442.151	1505.77
446.172	419.022
450.192	182.327
454.209	324.983
458.225	913.569
462.238	413.345
466.25	544.858
470.259	1199.96
474.267	1334.22
478.273	2119.26
482.276	3855.25
486.278	5002.11
490.278	5129.64
494.276	4777.63
498.271	4886.13
502.265	4904.9
506.257	3973.91
510.247	3253.16
514.235	3682.62
518.221	4572.29
522.205	4892.17
526.187	4722.26
530.167	5122.55
534.145	7201.83
538.122	9015.99
542.096	9516.9
546.068	8872.42
550.039	8443.35
554.007	8286.07
557.973	6818.67
561.938	5071.72
565.901	4465.26
569.861	6039.28
573.82	7993.81
577.777	9418.86
581.732	11054.4
585.685	14760.6
589.636	20257.3
593.585	27344.6
597.532	33043.9
601.477	39632.6
605.42	46716
609.361	51122
613.301	50906.1
617.238	45698.8
621.174	39235.6
625.108	35667.3
629.039	31822.6
632.969	27379
636.897	22493.7
640.823	19189.8
644.747	17394.2
648.669	16413
652.589	14289.3
656.508	11862.3
660.424	10676.5
664.339	10631.7
668.251	10127.9
672.162	8894.92
676.071	7282.91
679.978	6341.8
683.883	6601.61
687.786	6542.34
691.687	5404.25
695.586	4297.69
699.484	3853.37
703.379	4121.6
707.273	4171.89
711.165	3283.56
715.055	2256.27
718.943	1999.87
722.829	2544.38
726.713	2689.77
730.595	1996.04
734.476	993.223
738.354	831.294
742.231	1050.29
746.106	1480.27
749.978	1091.16
753.849	143.028
757.719	363.923
761.586	119.937
765.451	564.88
769.315	471.703
773.177	39.46
777.036	478.793
780.894	207.222
784.75	331.802
788.605	698.646
792.457	223.506
796.307	321.38
800.156	351.663
804.003	282.67
807.848	1067.86
811.691	1478.53
815.532	1358.31
819.371	1369.24
823.209	2524.54
827.045	4350.42
830.878	5516.84
834.71	5943.73
838.54	6311.01
842.369	7418.7
846.195	9556.84
850.02	12275.3
853.842	13874
857.663	14902.9
861.482	16202
865.299	19451.2
869.115	25020.6
872.928	24960
876.74	17959.5
880.55	10929
884.358	6850.95
888.164	4951.52
891.969	4432.91
895.771	4544.27
899.572	4926.46
903.371	5743.35
907.168	7450.8
910.963	11377.3
914.757	11500.4
918.548	8150.42
922.338	4672.61
926.126	2023.39
929.912	770.578
933.697	512.389
937.479	811.139
941.26	1078.21
945.039	748.234
948.816	58.751
952.591	401.38
956.365	221.506
960.136	507.048
963.906	875.112
967.674	896.315
971.441	802.764
975.205	314.01
978.968	568.167
982.729	1289.16
986.488	2032.9
990.245	2454.87
994	2080.22
997.754	1355.6
1001.51	1112.11
1005.26	1289.27
1009	2050.86
1012.75	2544.34
1016.5	2448.82
1020.24	1861.21
1023.98	1167.53
1027.72	775.177
1031.46	991.147
1035.19	1418.41
1038.93	1660.92
1042.66	1058.69
1046.39	362.522
1050.12	73.47
1053.85	75.517
1057.57	430.175
1061.29	1084.91
1065.02	1345.08
1068.74	931.554
1072.45	439.701
1076.17	97.978
1079.88	309.564
1083.6	922.61
1087.31	1471.1
1091.02	1657.38
1094.72	1313.3
1098.43	523.006
1102.13	13.777
1105.84	121.39
1109.54	388.467
1113.24	718.621
1116.93	1219.16
1120.63	890.314
1124.32	326.728
1128.01	148.445
1131.7	25.946
1135.39	337.353
1139.08	820.828
1142.76	1237.88
1146.45	1158.55
1150.13	856.376
1153.81	425.566
1157.48	151.178
1161.16	213.195
1164.84	602.604
1168.51	1559.26
1172.18	2237.7
1175.85	2287.71
1179.52	1809.87
1183.18	1107.13
1186.85	782.062
1190.51	905.808
1194.17	1304.32
1197.83	1846.16
1201.48	1749.06
1205.14	1486.28
1208.79	1114.08
1212.44	492.229
1216.09	364.001
1219.74	478.557
1223.39	996.558
1227.03	1694.52
1230.68	2153.94
1234.32	1961.65
1237.96	1556.45
1241.6	1041.01
1245.23	893.795
1248.87	737.771
1252.5	981.381
1256.13	1369.69
1259.76	1806.01
1263.39	1735.44
1267.02	1550.72
1270.64	893.823
1274.26	508.956
1277.88	210.886
1281.5	180.866
1285.12	415.847
1288.74	1236.63
1292.35	1666.64
1295.96	1612.91
1299.57	1459.82
1303.18	970.472
1306.79	333.717
1310.4	120.912
1314	72.264
1317.6	427.376
1321.2	1051.74
1324.8	1497.27
1328.4	1219.83
1331.99	1165.21
1335.59	781.841
1339.18	391.056
1342.77	96.437
1346.36	14.518
1349.95	244.737
1353.53	642.506
1357.12	1219.95
1360.7	1433.28
1364.28	1530.38
1367.86	1195.16
1371.44	622.449
1375.01	220.165
1378.59	1.592
1382.16	268.158
1385.73	95.135
1389.3	487.037
1392.87	1118.03
1396.43	1398.58
1399.99	1618.27
1403.56	1503.68
1407.12	1015.57
1410.68	590.558
1414.23	236.086
1417.79	88.278
1421.34	17.015
1424.9	470.079
1428.45	876.509
1431.99	1336.98
1435.54	1703.32
1439.09	1771.39
1442.63	1705.66
1446.17	1304.58
1449.71	860.837
1453.26	286.193
1456.79	127.604
1460.33	190.207
1463.86	349.893
1467.39	944.72
1470.92	1477.4
1474.45	1743.08
1477.98	1949.49
1481.51	1955.59
1485.03	1626.99
1488.56	1231.89
1492.08	619.052
1495.6	207.707
1499.11	50.801
1502.63	225.585
1506.14	242.15
1509.66	225.735
