Measurement: Raman, 514 nm, ccw, Raman Data Processed
Mineral: Titanite
Rruff sample: R050124
Ideal chemistry: CaTiSiO_5_
Locality: Capelinha, Minas Gerais, Brazil
Source: Carlos and Paulo Vasconcelos
Description: Yellow tabular crystal
Measured chemistry: Ca_1.00_(Ti_0.93_Al_0.05_Fe^3+^_0.02_)Si_1.00_O_4_(O)_1.00_
Pin_id: M00070
Orientation: Laser parallel to (-1 0 -1). Fiducial mark perpendicular to laser is parallel to b [0 1 0]
Raman shift (cm-1)	intensity
123.422	0
127.59	275.837
131.756	91.085
135.92	232.13
140.082	1981.4
144.242	4542.15
148.4	3855.43
152.556	1933.67
156.71	2589.89
160.862	4198.9
165.012	4899.7
169.16	3489.76
173.306	1986.28
177.449	1314.36
181.591	1416.8
185.731	1503.76
189.869	1074.41
194.005	1209.62
198.139	1812.32
202.271	2050.72
206.4	2051.82
210.528	2349.57
214.654	2552.59
218.778	2393.66
222.9	2733.31
227.019	3741.88
231.137	4739.55
235.253	5376.46
239.367	4362.7
243.479	4108.31
247.589	4573.31
251.697	5633.98
255.803	6670.6
259.906	6854.1
264.008	5626.99
268.108	4330.19
272.206	3794.88
276.302	3749.34
280.396	3853.34
284.488	5526.92
288.578	9103.92
292.666	12142.8
296.753	9754.85
300.837	6454.69
304.919	5407.12
308.999	5911.46
313.077	8297.22
317.154	12744
321.228	11901.7
325.3	7769.91
329.371	5638.51
333.439	5307.33
337.506	4706.27
341.57	3695.24
345.633	4264.19
349.693	6643.09
353.752	7661.86
357.809	4960.27
361.863	2216.11
365.916	1284.43
369.967	960.275
374.016	357.656
378.063	259.477
382.108	282.512
386.151	73.132
390.192	209.604
394.231	528.853
398.269	493.598
402.304	92.166
406.337	370.981
410.369	1015.34
414.398	2962.17
418.426	6916.21
422.452	11007.2
426.475	9855.65
430.497	5992.99
434.517	3400.33
438.535	1712.82
442.551	457.533
446.565	126.441
450.577	105.361
454.588	149.546
458.596	226.217
462.602	872.917
466.607	3048.78
470.61	4625.68
474.61	4152.57
478.609	3249.53
482.606	3166.42
486.601	3343.23
490.594	3179.97
494.585	2556.65
498.575	2223.26
502.562	2199.82
506.548	2016.34
510.531	1622.82
514.513	1336.29
518.493	1795.75
522.47	2202.22
526.446	2098.72
530.421	1985.26
534.393	2401.86
538.363	3150.14
542.331	3575.17
546.298	2897.52
550.263	2114.62
554.225	2343.81
558.186	3143.29
562.145	4969.9
566.103	7663.7
570.058	9842.28
574.011	10431.3
577.963	10740.6
581.912	10720.5
585.86	11520.8
589.806	13782.1
593.75	17408.7
597.692	21385
601.632	24466
605.571	27709.7
609.507	29680.7
613.442	29619.3
617.375	26704.1
621.306	23154.1
625.235	20225.5
629.162	17809.5
633.087	15747.2
637.011	13195.2
640.932	11003.9
644.852	9703.41
648.77	9093.68
652.686	8154.67
656.6	7226.33
660.513	5908.79
664.423	5592.1
668.332	5386.17
672.239	5151.07
676.144	4216.79
680.047	3373.27
683.948	3200.46
687.848	3388.43
691.746	3097.1
695.641	2346.67
699.535	1877.51
703.427	1710.01
707.318	1954.3
711.206	1810.45
715.093	1288.38
718.978	707.97
722.861	698.737
726.742	1060.2
730.621	1212.37
734.499	645.228
738.374	58.877
742.248	153.251
746.12	338.307
749.99	544
753.859	160.179
757.725	345.268
761.59	454.36
765.453	59.972
769.314	219.122
773.174	197.678
777.031	149.563
780.887	163.508
784.741	196.036
788.593	571.521
792.443	711.773
796.291	518.24
800.138	422.773
803.983	669.283
807.826	1488.13
811.667	2362.86
815.507	3180.18
819.344	3245.96
823.18	3326.56
827.014	3988.51
830.847	4402.77
834.677	4843.4
838.506	5117.52
842.333	6023.33
846.158	7931.44
849.981	11497.5
853.803	15344.2
857.623	18190.8
861.441	19127.5
865.257	21794.2
869.071	26891.1
872.884	30408.1
876.695	27685.1
880.504	23412.8
884.311	19235.5
888.117	14943.6
891.92	10795.8
895.722	8436.67
899.523	7138.26
903.321	6485.06
907.118	6452.96
910.913	6643.81
914.706	5605.45
918.497	3971.64
922.287	2371.02
926.075	1321.37
929.861	372.097
933.645	33.039
937.428	257.485
941.208	485.012
944.987	609.815
948.765	360.126
952.54	13.204
956.314	51.743
960.086	92.295
963.856	512.735
967.625	787.176
971.392	473.87
975.157	187.042
978.92	77.42
982.682	8.854
986.441	261.786
990.199	648.133
993.956	727.28
997.71	591.98
1001.46	176.087
1005.21	237.009
1008.96	506.047
1012.71	958.495
1016.46	1195.38
1020.2	1100.08
1023.94	635.988
1027.68	195.414
1031.42	40.35
1035.16	292.679
1038.9	618.402
1042.63	605.418
1046.36	473.478
1050.09	64.409
1053.82	275.229
1057.55	100.743
1061.27	391.106
1065	703.313
1068.72	733.027
1072.44	558.518
1076.16	252.799
1079.87	20.63
1083.59	231.812
1087.3	661.738
1091.01	1042.57
1094.72	1027.24
1098.43	691.002
1102.14	271.336
1105.84	11.14
1109.55	8.023
1113.25	241.522
1116.94	627.827
1120.64	832.248
1124.34	747.616
1128.03	220.959
1131.73	40.624
1135.42	26.654
1139.11	163.197
1142.8	783.773
1146.48	972.989
1150.16	889.701
1153.85	765.228
1157.53	359.549
1161.21	61.471
1164.88	337.705
1168.56	647.602
1172.23	1171.34
1175.91	1584.14
1179.58	1782.18
1183.25	1322.83
1186.91	753.993
1190.58	262.5
1194.24	659.853
1197.91	966.876
1201.57	1201.11
1205.23	1271.7
1208.88	1289.27
1212.54	1035.56
1216.19	622.18
1219.85	341.764
1223.5	495.345
1227.14	817.604
1230.79	1184.79
1234.44	1511.67
1238.08	1166.51
1241.72	932.634
1245.37	668.174
1249	371.227
1252.64	304.031
1256.28	460.103
1259.91	741.734
1263.54	969.222
1267.17	972.439
1270.8	846.404
1274.43	508.151
1278.06	129.288
1281.68	71.194
1285.3	7.813
1288.92	370.511
1292.54	701.133
1296.16	952.916
1299.78	1032.84
1303.39	813.567
1307	722.374
1310.61	182.626
1314.22	112.947
1317.83	62.812
1321.44	352.526
1325.04	622.133
1328.64	971.131
1332.24	1070.44
1335.85	849.119
1339.44	537.928
1343.04	366.056
1346.63	95.389
1350.23	26.927
1353.82	11.982
1357.41	410.063
1360.99	748.57
1364.58	1118.15
1368.17	1016.59
1371.75	904.858
1375.33	521.073
1378.91	342.764
1382.49	124.924
1386.07	6.848
1389.64	198.497
1393.21	587.717
1396.79	906.447
1400.36	990.319
1403.92	1069.33
1407.49	1211.81
1411.06	966.028
1414.62	505.763
1418.18	164.158
1421.74	134.782
1425.3	8.587
1428.86	361.685
1432.42	630.828
1435.97	1054.1
1439.52	1382.84
1443.07	1438.57
1446.62	1309.28
1450.17	1053.62
1453.72	564.606
1457.26	413.7
1460.81	190.688
1464.35	148.542
1467.89	356.424
1471.42	829.145
1474.96	1068.72
1478.49	1135.43
1482.03	1187.27
1485.56	1390.07
1489.09	1113.85
1492.62	898.605
1496.15	474.724
1499.67	136.645
1503.2	21.352
1506.72	121.195
1510.24	74.131
1513.76	1.229
