Measurement: Raman, 514 nm, ccw, Raman Data Processed
Mineral: Topaz
Rruff sample: R050200
Ideal chemistry: Al_2_SiO_4_F_2_
Locality: Jos Plateau, Nigeria
Source: Marcus Origlieri
Description: Colorless water-worn single crystal
Measured chemistry: Al_2.000_Si_1.000_O_4.000_F_1.488_(OH)_0.512_
Pin_id: L00463
Orientation: Laser parallel to -c* (0 0 -1). Fiducial mark perpendicular to laser is parallel to a [1 0 0]
Raman shift (cm-1)	intensity
95.465	0
99.644	124.809
103.82	118.511
107.995	344.367
112.168	502.893
116.339	424.699
120.508	378.836
124.675	126.196
128.84	65.867
133.003	71.076
137.164	26.849
141.323	29.535
145.48	62.631
149.635	629.789
153.788	1662.08
157.939	1342.7
162.088	377.329
166.235	86.331
170.38	25.78
174.523	19.651
178.664	82.564
182.803	0.604
186.94	68.617
191.076	15.964
195.209	68.622
199.34	103.527
203.47	164.674
207.597	343.073
211.722	63.709
215.846	53.433
219.967	26.447
224.087	27.696
228.204	288.062
232.32	1846.69
236.434	8485.61
240.545	18298.6
244.655	6483.78
248.763	1719.21
252.869	1056.94
256.973	1392.96
261.075	5445.19
265.175	21980
269.273	43075.4
273.369	9999.88
277.463	5937.56
281.556	19609.2
285.646	50702
289.734	30787.9
293.821	7680.94
297.905	2823.33
301.988	1698.51
306.069	1286.56
310.147	1114.66
314.224	1152.92
318.299	1436.35
322.372	2430.62
326.443	8056.93
330.512	24522.4
334.579	29843.1
338.645	7690.66
342.708	2573.68
346.769	1224.59
350.829	783.059
354.887	696.234
358.942	759.01
362.996	403.03
367.048	346.285
371.098	331.899
375.146	366.055
379.192	354.638
383.236	483.277
387.279	702.684
391.319	1379.13
395.358	3465.78
399.394	11038.7
403.429	22047.9
407.462	12158.2
411.493	3632.77
415.522	1277.43
419.549	544.179
423.575	287.797
427.598	251.078
431.619	197.042
435.639	317.126
439.657	440.931
443.673	895.135
447.687	2394.17
451.699	9580.52
455.709	28355.9
459.717	27975.4
463.724	9627.89
467.728	4099.44
471.731	1683.04
475.732	1081.67
479.731	665.714
483.728	543.028
487.723	568.751
491.716	781.498
495.708	354.266
499.697	158.08
503.685	29.956
507.671	18.92
511.655	19.995
515.637	3.976
519.617	94.244
523.596	156.239
527.572	4.951
531.547	35.611
535.52	44.911
539.491	40.588
543.46	168.424
547.427	484.836
551.393	557.284
555.356	964.35
559.318	1908.43
563.278	1773.96
567.236	712.312
571.192	288.971
575.147	107.278
579.099	21.079
583.05	58.442
586.999	58.944
590.946	4.771
594.891	35.133
598.834	80.688
602.776	7.314
606.715	85.753
610.653	103.052
614.589	229.223
618.523	250.264
622.456	354.174
626.386	409.952
630.315	504.598
634.242	616.111
638.167	962.49
642.09	1901.73
646.012	2065.84
649.931	1064.82
653.849	443.665
657.765	170.374
661.679	122.948
665.592	74.094
669.502	7.212
673.411	56.476
677.318	37.75
681.223	18.636
685.126	6.759
689.028	1.623
692.927	41.956
696.825	23.393
700.721	67.424
704.616	39.547
708.508	41.975
712.399	15.809
716.288	38.021
720.175	39.139
724.06	18.427
727.944	52.522
731.825	87.352
735.705	0.83
739.584	110.947
743.46	49.85
747.334	86.426
751.207	16.279
755.078	10.694
758.947	41.833
762.815	111.466
766.68	154.648
770.544	92.8
774.406	222.925
778.267	199.03
782.125	227.119
785.982	300.195
789.837	320.265
793.69	401.332
797.542	492.409
801.391	502.512
805.239	564.635
809.085	770.812
812.93	774.029
816.772	920.248
820.613	1085.3
824.452	1478.68
828.29	1868.02
832.125	2480.48
835.959	3671.05
839.791	6063.32
843.621	11080
847.45	18932.2
851.277	26273.3
855.102	31436.3
858.925	28131.7
862.746	17116.7
866.566	10094.2
870.384	6699.02
874.2	5082.82
878.015	4011.21
881.828	3479.37
885.639	3033.66
889.448	2963.32
893.256	3132.65
897.061	3602.26
900.865	4427.68
904.668	5568.47
908.468	7354.55
912.267	10185.9
916.064	14964.4
919.86	23338.1
923.653	33732.9
927.445	37327
931.236	30459.2
935.024	22278.7
938.811	15301.3
942.596	9374.1
946.379	6191.57
950.161	4435.91
953.94	3303.81
957.719	2548.09
961.495	1909.28
965.27	1541.79
969.043	1255.54
972.814	1089.46
976.583	875.864
980.351	723.518
984.117	558.558
987.882	631.736
991.644	575.133
995.405	544.066
999.165	645.277
1002.92	1089.03
1006.68	1177.94
1010.43	1450.59
1014.18	1293.61
1017.93	715.312
1021.68	489.859
1025.43	387.376
1029.18	291.911
1032.92	290.656
1036.66	268.352
1040.4	139.087
1044.14	110.495
1047.88	129.436
1051.62	139.804
1055.35	129.78
1059.08	163.237
1062.81	110.674
1066.54	77.71
1070.27	157.506
1073.99	119.549
1077.72	93.775
1081.44	136.123
1085.16	31.487
1088.88	35.122
1092.59	20.214
1096.31	2.324
1100.02	63.479
1103.73	8.954
1107.44	62.157
1111.15	42.804
1114.86	6.354
1118.57	75.582
1122.27	163.238
1125.97	119.045
1129.67	4.836
1133.37	21.546
1137.07	22.202
1140.76	12.824
1144.45	39.64
1148.15	8.322
1151.84	2.129
1155.53	44.944
1159.21	10.202
1162.9	74.484
1166.58	21.076
1170.26	106.574
1173.94	43.968
1177.62	58.27
1181.3	51.432
1184.97	9.369
1188.65	42.988
1192.32	13.35
1195.99	4.774
1199.66	14.456
1203.33	7.595
1206.99	26.93
1210.65	50.518
1214.32	48.39
1217.98	56.534
1221.64	43.554
1225.29	4.545
1228.95	51.183
1232.6	42.776
1236.26	99.222
1239.91	125.544
1243.56	133.277
1247.2	56.193
1250.85	76.442
1254.49	115.659
1258.13	98.378
1261.78	86.873
1265.41	158.856
1269.05	189.167
1272.69	128.354
1276.32	249.418
1279.95	194.231
1283.59	126.052
1287.21	177.75
1290.84	170.561
1294.47	178.371
1298.09	175.155
1301.72	176.976
1305.34	114.741
1308.96	272.469
1312.58	395.417
1316.19	682.06
1319.81	708.695
1323.42	186.431
1327.03	151.02
1330.64	87.033
1334.25	122.357
1337.86	12.267
1341.46	56.114
1345.07	36.225
1348.67	49.496
1352.27	18.327
1355.87	11.042
1359.46	93.559
1363.06	147.565
1366.65	71.663
1370.25	102.248
1373.84	154.045
1377.43	181.244
1381.02	119.194
1384.6	151.965
1388.18	166.482
1391.77	131.348
1395.35	158.401
1398.93	106.452
1402.51	123.498
1406.08	150.424
1409.66	84.194
1413.23	101.061
1416.8	240.988
1420.37	145.014
1423.94	174.958
1427.51	156.829
1431.08	145.791
1434.64	191.263
1438.2	266.025
1441.76	255.631
1445.32	386.979
1448.88	619.579
1452.43	386.259
1455.99	418.965
1459.54	487.662
1463.09	454.407
1466.64	358.22
1470.19	304.519
1473.74	295.157
1477.28	234.311
1480.83	187.68
1484.37	167.764
1487.91	198.301
1491.45	216.189
1494.98	166.502
1498.52	106.373
1502.05	59.974
1505.59	13.455
1509.12	32.25
1512.65	96.432
1516.17	154.685
1519.7	12.239
1523.23	79.527
1526.75	0
