Measurement: Raman, 514 nm, ccw, Raman Data Processed
Mineral: Topaz
Rruff sample: R050200
Ideal chemistry: Al_2_SiO_4_F_2_
Locality: Jos Plateau, Nigeria
Source: Marcus Origlieri
Description: Colorless water-worn single crystal
Measured chemistry: Al_2.000_Si_1.000_O_4.000_F_1.488_(OH)_0.512_
Pin_id: L00463
Orientation: Laser parallel to -c* (0 0 -1). Fiducial mark perpendicular to laser is parallel to a [1 0 0]
Raman shift (cm-1)	intensity
91.284	0
95.465	103.714
99.644	230.729
103.82	262.88
107.995	496.05
112.168	924.784
116.339	1401.54
120.508	1713.94
124.675	163.119
128.84	539.034
133.003	107.656
137.164	25.061
141.323	34.6
145.48	6.322
149.635	670.568
153.788	1908.79
157.939	1490.95
162.088	399.335
166.235	171.437
170.38	10.145
174.523	155.391
178.664	75.068
182.803	6.896
186.94	32.337
191.076	38.928
195.209	115.751
199.34	201.792
203.47	255.007
207.597	313.786
211.722	75.996
215.846	108.267
219.967	30.418
224.087	143.485
228.204	979.572
232.32	5629.85
236.434	21774.2
240.545	33184.3
244.655	11668.5
248.763	3256.99
252.869	1594.64
256.973	2011.54
261.075	8389.9
265.175	32512.8
269.273	60004.2
273.369	15297.8
277.463	7832.33
281.556	10758
285.646	24684.4
289.734	15611
293.821	4588.82
297.905	1898.73
301.988	1411.67
306.069	1105.39
310.147	900.687
314.224	950.887
318.299	1021.1
322.372	1419.84
326.443	3494.72
330.512	9285.72
334.579	11361.8
338.645	3250.08
342.708	1217.43
346.769	828.603
350.829	844.599
354.887	2080.4
358.942	5069.36
362.996	2247.47
367.048	640.731
371.098	475.051
375.146	498.539
379.192	657.163
383.236	764.595
387.279	467.106
391.319	536.781
395.358	1266.68
399.394	3949.74
403.429	7541.01
407.462	4246.47
411.493	1302.04
415.522	548.714
419.549	86.462
423.575	9.716
427.598	8.093
431.619	48.007
435.639	3.581
439.657	29.928
443.673	39.104
447.687	521.878
451.699	2455.12
455.709	7633.23
459.717	7619.69
463.724	2536.95
467.728	805.288
471.731	348.422
475.732	353.479
479.731	129.454
483.728	264.348
487.723	494.157
491.716	1108.88
495.708	1043.5
499.697	1229.36
503.685	445.916
507.671	661.222
511.655	1302.31
515.637	3953.53
519.617	9477.06
523.596	6890.4
527.572	2079.52
531.547	668.423
535.52	386.029
539.491	438.373
543.46	1038.51
547.427	3079.7
551.393	2741.2
555.356	1848.64
559.318	3108.39
563.278	3076.53
567.236	1507.01
571.192	764.5
575.147	553.713
579.099	336.551
583.05	290.272
586.999	256.091
590.946	240.85
594.891	66.905
598.834	88.143
602.776	118.017
606.715	67.026
610.653	102.598
614.589	173.583
618.523	169.292
622.456	195.756
626.386	273.975
630.315	397.948
634.242	515.677
638.167	469.162
642.09	689.401
646.012	741.396
649.931	413.149
653.849	221.658
657.765	147.92
661.679	156.894
665.592	31.43
669.502	80.777
673.411	21.518
677.318	32.793
681.223	8.628
685.126	43.082
689.028	43.268
692.927	36.194
696.825	145.85
700.721	85.249
704.616	120.624
708.508	29.806
712.399	36.252
716.288	99.894
720.175	86.135
724.06	51.898
727.944	2.902
731.825	47.322
735.705	68.432
739.584	51.927
743.46	6.141
747.334	84.168
751.207	93.681
755.078	1.858
758.947	10.012
762.815	18.685
766.68	168.414
770.544	152.032
774.406	163.827
778.267	184.629
782.125	118.174
785.982	75.736
789.837	103.184
793.69	224.537
797.542	142.832
801.391	207.054
805.239	267.222
809.085	356.337
812.93	340.007
816.772	346.99
820.613	440.776
824.452	584.944
828.29	752.949
832.125	1047.67
835.959	1410.37
839.791	2170.86
843.621	3864.52
847.45	6629.3
851.277	9087.92
855.102	11167.9
858.925	10196.1
862.746	6468.16
866.566	4265.56
870.384	2930.63
874.2	2474.01
878.015	2353.17
881.828	2269.36
885.639	2276.58
889.448	2519.77
893.256	3060.45
897.061	3969.14
900.865	5155.58
904.668	7077.11
908.468	9254.68
912.267	11780.1
916.064	16154.2
919.86	23944.9
923.653	34007.8
927.445	37523
931.236	30798.2
935.024	23116.6
938.811	17477.1
942.596	11501.8
946.379	7348.06
950.161	5275.81
953.94	3803.95
957.719	2889.53
961.495	2102.7
965.27	1733.46
969.043	1588.67
972.814	1227.56
976.583	1036.23
980.351	891.925
984.117	1015.71
987.882	1125.98
991.644	919.186
995.405	1072.28
999.165	1338.49
1002.92	2122.13
1006.68	3259.34
1010.43	4227.18
1014.18	3583.34
1017.93	2003.67
1021.68	1200.26
1025.43	860.069
1029.18	672.048
1032.92	479.65
1036.66	537.772
1040.4	366.787
1044.14	154.489
1047.88	249.164
1051.62	352.349
1055.35	181.629
1059.08	252.635
1062.81	154.243
1066.54	81.036
1070.27	164.769
1073.99	145.213
1077.72	145.585
1081.44	187.924
1085.16	158.986
1088.88	146.128
1092.59	32.104
1096.31	3.123
1100.02	29.364
1103.73	66.685
1107.44	73.226
1111.15	73.716
1114.86	65.804
1118.57	41.633
1122.27	69.327
1125.97	215.228
1129.67	25.341
1133.37	4.121
1137.07	14.066
1140.76	163.573
1144.45	26.298
1148.15	106.484
1151.84	92.21
1155.53	322.326
1159.21	515.155
1162.9	952.523
1166.58	1042.36
1170.26	816.14
1173.94	789.418
1177.62	316.695
1181.3	137.748
1184.97	0.661
1188.65	0.059
1192.32	43.99
1195.99	18.244
1199.66	28.491
1203.33	32.895
1206.99	17.505
1210.65	18.664
1214.32	97.828
1217.98	743.67
1221.64	72.024
1225.29	94.187
1228.95	48.317
1232.6	169.595
1236.26	228.636
1239.91	121.41
1243.56	136.089
1247.2	132.606
1250.85	4.154
1254.49	109.635
1258.13	76.132
1261.78	113.282
1265.41	37.889
1269.05	131.584
1272.69	107.211
1276.32	122.604
1279.95	169.623
1283.59	122.892
1287.21	246.03
1290.84	106.564
1294.47	3.671
1298.09	117.96
1301.72	143.565
1305.34	197.124
1308.96	118.499
1312.58	200.687
1316.19	108.695
1319.81	237.528
1323.42	182.189
1327.03	79.813
1330.64	1.107
1334.25	77.47
1337.86	174.321
1341.46	92.408
1345.07	22.812
1348.67	173.067
1352.27	140.16
1355.87	66.541
1359.46	116.801
1363.06	188.177
1366.65	198.418
1370.25	166.995
1373.84	237.168
1377.43	195.033
1381.02	124.212
1384.6	209.138
1388.18	211.77
1391.77	100.856
1395.35	237.846
1398.93	196.172
1402.51	221.947
1406.08	209.521
1409.66	91.855
1413.23	100.758
1416.8	219.849
1420.37	160.508
1423.94	297.335
1427.51	245.498
1431.08	266.302
1434.64	304.708
1438.2	379.173
1441.76	520.953
1445.32	636.838
1448.88	744.475
1452.43	611.318
1455.99	707.192
1459.54	746.098
1463.09	718.08
1466.64	589.089
1470.19	343.316
1473.74	511.747
1477.28	347.483
1480.83	361.097
1484.37	364.268
1487.91	367.954
1491.45	325.178
1494.98	134.687
1498.52	188.965
1502.05	195.023
1505.59	13.531
1509.12	6.317
1512.65	69.867
1516.17	57.607
1519.7	137.842
1523.23	0
