Measurement: Raman, 514 nm, ccw, Raman Data Processed
Mineral: Topaz
Rruff sample: R040121
Ideal chemistry: Al_2_SiO_4_F_2_
Locality: Tepetate, San Luis Potosi, Mexico
Source: University of Arizona Mineral Museum
Description: Fragments of a prismatic single crystal
Measured chemistry: Al_2.00_(Si_0.99_Al_0.02_)(F_0.82_(OH)_0.18_)_2_
Pin_id: L00170
Orientation: Laser parallel to -c* (0 0 -1). Fiducial mark perpendicular to laser is parallel to a [1 0 0]
Raman shift (cm-1)	intensity
93.375	0
97.554	41.55
101.732	95.174
105.908	137.979
110.082	184.113
114.254	349.105
118.424	707.866
122.592	273.915
126.758	28.129
130.922	20.835
135.083	53.506
139.243	139.495
143.401	211.692
147.557	600.237
151.711	1740.94
155.863	1653.2
160.013	341.105
164.161	120.45
168.308	3.794
172.452	37.811
176.594	2.544
180.734	15.213
184.872	1.72
189.008	31.319
193.143	49.094
197.275	19.199
201.405	48.775
205.534	100.846
209.66	132.495
213.784	115.516
217.907	233.614
222.027	353.691
226.146	708.692
230.263	2554.19
234.377	11933.9
238.49	24545.3
242.601	13827.6
246.709	3181.33
250.816	1532.96
254.921	1755.53
259.024	5553.69
263.125	24169
267.224	57433
271.321	13575.3
275.416	3769.85
279.51	4252.93
283.601	10876.6
287.69	8780.94
291.778	2074.51
295.863	834.407
299.947	502.857
304.029	394.214
308.108	363.859
312.186	350.876
316.262	330.313
320.336	435.084
324.408	785.838
328.478	2423.56
332.546	4382.07
336.612	1283.72
340.677	534.134
344.739	403.826
348.799	321.288
352.858	289.297
356.915	271.676
360.969	208.521
365.022	156.094
369.073	23.893
373.122	76.588
377.169	132.985
381.215	143.96
385.258	119.258
389.299	184.775
393.339	243.255
397.376	679.773
401.412	2427.31
405.446	1715.9
409.478	476.454
413.508	244.958
417.536	107.367
421.562	57.615
425.586	58.436
429.609	25.181
433.629	8.761
437.648	39.699
441.665	36.604
445.68	17.112
449.693	1.481
453.704	27.67
457.713	56.641
461.721	87.744
465.726	118.099
469.73	103.629
473.731	103.028
477.731	104.257
481.729	132.349
485.725	140.3
489.72	427.148
493.712	380.943
497.703	262.712
501.691	355.452
505.678	532.196
509.663	999.958
513.646	2842.89
517.627	8707.08
521.607	10248.5
525.584	3080.74
529.56	1133.06
533.534	605.68
537.506	437.173
541.476	426.463
545.444	514.955
549.41	573.158
553.375	822.106
557.337	2128.34
561.298	3833.59
565.257	2295.12
569.214	1120.08
573.17	694.167
577.123	532.595
581.075	478.297
585.024	475.057
588.972	522.421
592.918	488.159
596.863	524.353
600.805	523.384
604.746	523.814
608.685	463.092
612.621	473.553
616.557	725.143
620.49	1037.02
624.421	1530.08
628.351	1127.91
632.279	712.229
636.205	654.001
640.129	856.018
644.051	1041.03
647.972	1048.11
651.89	938.05
655.807	661.866
659.722	366.553
663.636	201.112
667.547	140.542
671.457	79.844
675.365	17.01
679.271	31.024
683.175	32.867
687.077	107.501
690.978	57.313
694.877	40.596
698.774	11.726
702.669	16.538
706.562	25.222
710.454	94.606
714.344	60.448
718.232	12.259
722.118	4.361
726.002	15.819
729.885	162.877
733.766	76.871
737.645	102.815
741.522	1.28
745.397	110.591
749.271	36.45
753.143	35.31
757.013	66.211
760.881	13.117
764.748	60.031
768.613	112.948
772.476	132.864
776.337	130.78
780.196	151.693
784.054	123.608
787.91	179.524
791.764	229.448
795.616	294.381
799.467	234.325
803.316	304.283
807.163	261.257
811.008	270.253
814.851	265.273
818.693	379.323
822.533	437.565
826.371	491.219
830.208	637.528
834.042	567.176
837.875	665.168
841.706	841.242
845.536	1061.38
849.363	1422.76
853.189	1871.48
857.013	2337.33
860.836	2179.14
864.656	1732.56
868.475	1437.16
872.292	1260.56
876.108	1207.07
879.922	1307.37
883.733	1332.58
887.544	1637.08
891.352	1842.73
895.159	2170.39
898.964	2598.39
902.767	3272.6
906.568	4184.99
910.368	5401.54
914.166	7651.33
917.962	11530.3
921.757	17555.4
925.55	23726.7
929.341	23468.2
933.13	17115.8
936.918	13251.7
940.703	9784.63
944.488	6263.78
948.27	4330.1
952.051	3052.6
955.83	2335.27
959.607	1785.11
963.383	1391.13
967.156	1190.32
970.928	861.688
974.699	773.228
978.468	611.945
982.234	692.843
986	556.927
989.763	472.222
993.525	360.03
997.285	591.135
1001.04	1618.53
1004.8	1179.71
1008.55	860.374
1012.31	928.885
1016.06	696.067
1019.81	701.518
1023.56	771.312
1027.31	505.325
1031.05	298.508
1034.79	186.82
1038.53	123.25
1042.27	120.792
1046.01	83.154
1049.75	122.23
1053.48	129.998
1057.22	102.577
1060.95	99.53
1064.68	69.979
1068.4	107.743
1072.13	185.734
1075.86	279.273
1079.58	384.89
1083.3	465.581
1087.02	389.34
1090.74	238.166
1094.45	122.072
1098.17	108.005
1101.88	158.011
1105.59	63.066
1109.3	71.339
1113.01	161.305
1116.71	54.478
1120.42	111.682
1124.12	239.913
1127.82	61.164
1131.52	104.434
1135.22	66.719
1138.91	37.985
1142.61	124.851
1146.3	44.173
1149.99	60.923
1153.68	26.921
1157.37	14.923
1161.06	23.697
1164.74	17.459
1168.42	83.175
1172.1	126.786
1175.78	123.294
1179.46	149.717
1183.14	73.105
1186.81	97.45
1190.48	89.748
1194.15	20.498
1197.83	40.709
1201.49	148.017
1205.16	12.341
1208.82	21.429
1212.49	61.936
1216.15	211.886
1219.81	115.499
1223.46	76.259
1227.12	94.699
1230.78	166.079
1234.43	324.407
1238.08	384.683
1241.73	325.886
1245.38	355.995
1249.03	470.884
1252.67	334.554
1256.31	239.942
1259.95	280.21
1263.6	496.337
1267.23	601.325
1270.87	656.134
1274.51	647.855
1278.14	658.605
1281.77	587.084
1285.4	442.428
1289.03	417.754
1292.66	504.409
1296.28	501.427
1299.91	485.738
1303.53	422.973
1307.15	481.078
1310.77	588.048
1314.38	666.341
1318	663.75
1321.61	697.406
1325.23	567.833
1328.84	391.944
1332.45	178.816
1336.06	19.43
1339.66	65.771
1343.27	72.838
1346.87	63.634
1350.47	36.148
1354.07	44.367
1357.67	36.277
1361.26	21.249
1364.86	31.684
1368.45	70.88
1372.04	62.908
1375.63	148.472
1379.22	199.329
1382.81	270.125
1386.39	235.213
1389.98	199.344
1393.56	172.369
1397.14	78.83
1400.72	57.65
1404.3	109.671
1407.87	89.62
1411.45	201.062
1415.02	154.98
1418.59	83.78
1422.16	34.25
1425.73	0.262
