Measurement: Raman, 514 nm, ccw, Raman Data Processed
Mineral: Topaz
Rruff sample: R050200
Ideal chemistry: Al_2_SiO_4_F_2_
Locality: Jos Plateau, Nigeria
Source: Marcus Origlieri
Description: Colorless water-worn single crystal
Measured chemistry: Al_2.000_Si_1.000_O_4.000_F_1.488_(OH)_0.512_
Pin_id: L00096
Orientation: Laser parallel to a* (1 0 0). Fiducial mark perpendicular to laser is parallel to b [0 1 0]
Raman shift (cm-1)	intensity
103.82	0
107.995	222.983
112.168	69.59
116.339	353.871
120.508	152.689
124.675	53.886
128.84	8.791
133.003	28.015
137.164	2.601
141.323	111.097
145.48	266.654
149.635	1786.32
153.788	4499.85
157.939	3140.26
162.088	749.032
166.235	310.041
170.38	123.199
174.523	10.56
178.664	34.877
182.803	24.707
186.94	93.334
191.076	61.747
195.209	159.287
199.34	174.161
203.47	219.889
207.597	378.42
211.722	198.847
215.846	244.188
219.967	330.445
224.087	593.46
228.204	1514.86
232.32	6922.31
236.434	28498.7
240.545	47930.2
244.655	18151.4
248.763	5023.16
252.869	2162.26
256.973	2362.38
261.075	9154.51
265.175	34905.7
269.273	50282.5
273.369	14171.4
277.463	8094.99
281.556	23361.7
285.646	48685.8
289.734	27933.4
293.821	7858.88
297.905	2570.98
301.988	1379.64
306.069	870.441
310.147	710.86
314.224	684.372
318.299	632.077
322.372	427.539
326.443	746.027
330.512	1733.54
334.579	1940.54
338.645	828.153
342.708	391.9
346.769	193.354
350.829	123.381
354.887	84.285
358.942	50.483
362.996	10.942
367.048	82.548
371.098	68.14
375.146	7.272
379.192	16.297
383.236	42.853
387.279	55.392
391.319	215.917
395.358	807.444
399.394	3178.96
403.429	6188.48
407.462	3624.02
411.493	1164.58
415.522	464.229
419.549	259.931
423.575	135.678
427.598	57.487
431.619	28.333
435.639	45.886
439.657	14.352
443.673	64.022
447.687	50.022
451.699	767.005
455.709	2174.97
459.717	1974.92
463.724	711.9
467.728	135.879
471.731	77.86
475.732	73.836
479.731	122.807
483.728	358.768
487.723	1413.72
491.716	2236.65
495.708	819.578
499.697	262.511
503.685	52.501
507.671	72.603
511.655	131.85
515.637	423.376
519.617	1120.83
523.596	971.21
527.572	426.177
531.547	314.126
535.52	295.393
539.491	347.882
543.46	511.667
547.427	792.389
551.393	1674.35
555.356	3912.3
559.318	7916.63
563.278	7324.7
567.236	3376.05
571.192	1481.53
575.147	674.617
579.099	449.012
583.05	281.642
586.999	205.707
590.946	199.385
594.891	103.788
598.834	188.562
602.776	199.733
606.715	247.881
610.653	266.293
614.589	273.772
618.523	209.898
622.456	130.219
626.386	122.476
630.315	144.013
634.242	286.09
638.167	601.192
642.09	1479.29
646.012	1880.43
649.931	1049.44
653.849	530.414
657.765	288.342
661.679	149.211
665.592	99.071
669.502	89.87
673.411	19.385
677.318	61.233
681.223	36.8
685.126	24.329
689.028	5.186
692.927	44.234
696.825	31.615
700.721	19.973
704.616	75.293
708.508	110.579
712.399	53.825
716.288	36.027
720.175	9.846
724.06	12.855
727.944	23.012
731.825	17.353
735.705	33.816
739.584	31.44
743.46	45.191
747.334	43.11
751.207	17.867
755.078	30.137
758.947	8.858
762.815	19.905
766.68	37.93
770.544	77.93
774.406	77.899
778.267	69.831
782.125	22.257
785.982	5.604
789.837	22.549
793.69	6.256
797.542	54.052
801.391	31.835
805.239	47.616
809.085	43.41
812.93	76.203
816.772	118.992
820.613	64.812
824.452	92.573
828.29	153.108
832.125	190.445
835.959	207.265
839.791	300.014
843.621	489.891
847.45	718.774
851.277	856.576
855.102	1061.34
858.925	1036.24
862.746	787.187
866.566	646.153
870.384	582.726
874.2	562.567
878.015	560.76
881.828	522.565
885.639	613.742
889.448	620.226
893.256	772.659
897.061	857.604
900.865	1120.68
904.668	1347.71
908.468	1847.3
912.267	2520.38
916.064	3692.96
919.86	5656.77
923.653	8252.39
927.445	11014.4
931.236	16514.2
935.024	30235.9
938.811	33917.1
942.596	18599
946.379	8940.41
950.161	5167.7
953.94	3241.95
957.719	2260.09
961.495	1694.04
965.27	1349.6
969.043	1123.81
972.814	1005.96
976.583	798.731
980.351	722.657
984.117	616.603
987.882	604.611
991.644	490.679
995.405	456.832
999.165	478.033
1002.92	610.956
1006.68	834.277
1010.43	827.656
1014.18	560.092
1017.93	378.585
1021.68	214.139
1025.43	142.781
1029.18	154.529
1032.92	202.398
1036.66	181.387
1040.4	182.49
1044.14	84.734
1047.88	147.661
1051.62	91.159
1055.35	103.192
1059.08	95.341
1062.81	20.329
1066.54	10.379
1070.27	64.975
1073.99	71.841
1077.72	69.637
1081.44	65.342
1085.16	71.408
1088.88	5.545
1092.59	5.37
1096.31	1.714
1100.02	32.816
1103.73	25.059
1107.44	72.053
1111.15	0.428
1114.86	53.925
1118.57	21.485
1122.27	103.699
1125.97	78.76
1129.67	17.839
1133.37	43.135
1137.07	42.4
1140.76	9.496
1144.45	10.497
1148.15	43.543
1151.84	144.58
1155.53	128.598
1159.21	233.61
1162.9	484.613
1166.58	503.606
1170.26	324.588
1173.94	192.578
1177.62	90.532
1181.3	62.606
1184.97	38.604
1188.65	36.155
1192.32	25.032
1195.99	16.793
1199.66	15.031
1203.33	19.141
1206.99	5.7
1210.65	18.848
1214.32	3.41
1217.98	43.884
1221.64	22.654
1225.29	15.619
1228.95	22.552
1232.6	27.323
1236.26	57.122
1239.91	60.811
1243.56	72.396
1247.2	86.065
1250.85	67.087
1254.49	37.498
1258.13	0.488
1261.78	73.917
1265.41	72.972
1269.05	73.55
1272.69	75.802
1276.32	15.928
1279.95	16.084
1283.59	69.189
1287.21	72.227
1290.84	82.159
1294.47	104.822
1298.09	95.171
1301.72	68.927
1305.34	88.16
1308.96	87.23
1312.58	74.807
1316.19	42.336
1319.81	84.817
1323.42	40.251
1327.03	100.636
1330.64	27.026
1334.25	89.229
1337.86	37.437
1341.46	13.514
1345.07	59.667
1348.67	43.691
1352.27	54.002
1355.87	58.222
1359.46	80.045
1363.06	74.563
1366.65	46.487
1370.25	97.952
1373.84	81.638
1377.43	81.917
1381.02	25.603
1384.6	151.125
1388.18	109.095
1391.77	43.286
1395.35	92.516
1398.93	147.86
1402.51	87.788
1406.08	95.132
1409.66	78.924
1413.23	148.635
1416.8	99.28
1420.37	107.842
1423.94	143.291
1427.51	46.485
1431.08	65.764
1434.64	119.771
1438.2	106.905
1441.76	80.99
1445.32	136.084
1448.88	93.051
1452.43	107.294
1455.99	187.652
1459.54	154.968
1463.09	137.307
1466.64	118.692
1470.19	84.023
1473.74	48.282
1477.28	51.478
1480.83	36.848
1484.37	112.611
1487.91	94.522
1491.45	15.692
1494.98	66.002
1498.52	45.493
1502.05	1.255
1505.59	9.416
1509.12	25.008
1512.65	18.111
1516.17	2.347
1519.7	40.863
1523.23	140.73
1526.75	0
