Measurement: Raman, 514 nm, ccw, Raman Data Processed
Mineral: Topaz
Rruff sample: R040121
Ideal chemistry: Al_2_SiO_4_F_2_
Locality: Tepetate, San Luis Potosi, Mexico
Source: University of Arizona Mineral Museum
Description: Fragments of a prismatic single crystal
Measured chemistry: Al_2.00_(Si_0.99_Al_0.02_)(F_0.82_(OH)_0.18_)_2_
Pin_id: L00473
Orientation: Laser parallel to a* (1 0 0). Fiducial mark perpendicular to laser is parallel to b [0 1 0]
Raman shift (cm-1)	intensity
93.375	0
97.554	85.325
101.732	143.292
105.908	165.023
110.082	162.443
114.254	990.681
118.424	1191.08
122.592	158.14
126.758	18.133
130.922	35.001
135.083	44.69
139.243	62.729
143.401	185.239
147.557	1182.8
151.711	4046.75
155.863	4239.97
160.013	870.369
164.161	346.939
168.308	117.907
172.452	72.03
176.594	43.816
180.734	40.457
184.872	32.158
189.008	33.44
193.143	15.959
197.275	52.389
201.405	34.586
205.534	169.871
209.66	206.162
213.784	150.414
217.907	288.603
222.027	453.547
226.146	977.53
230.263	3438.93
234.377	18226.7
238.49	56102.6
242.601	24386
246.709	5412.71
250.816	2171.32
254.921	2182.94
259.024	5835.62
263.125	24887
267.224	60838.4
271.321	15703.7
275.416	5895.82
279.51	14559.5
283.601	44983.2
287.69	37605.9
291.778	8077.45
295.863	2288.57
299.947	1081.09
304.029	729.308
308.108	544.088
312.186	498.998
316.262	612.537
320.336	367.483
324.408	386.427
328.478	1119.38
332.546	1967.31
336.612	613.1
340.677	254.211
344.739	246.52
348.799	57.957
352.858	68.378
356.915	25.593
360.969	64.217
365.022	31.926
369.073	92.892
373.122	84.909
377.169	19.028
381.215	2.921
385.258	55.228
389.299	65.419
393.339	276.604
397.376	1999.77
401.412	7633.89
405.446	5066
409.478	1401.11
413.508	480.203
417.536	262.293
421.562	175.706
425.586	90.473
429.609	19.579
433.629	9.626
437.648	15.402
441.665	80.616
445.68	39.896
449.693	424.385
453.704	1993.85
457.713	2406.32
461.721	465.788
465.726	208.278
469.73	44.73
473.731	11.904
477.731	83.368
481.729	127.598
485.725	554.792
489.72	2150.95
493.712	1672.06
497.703	405.136
501.691	140.188
505.678	132.249
509.663	192.316
513.646	253.464
517.627	772.407
521.607	972.224
525.584	348.901
529.56	309.174
533.534	250.49
537.506	231.652
541.476	391.225
545.444	544.923
549.41	932.745
553.375	1979.23
557.337	5621.7
561.298	10632.2
565.257	5703.64
569.214	2186.97
573.17	1093.94
577.123	588.049
581.075	295.868
585.024	310.458
588.972	251.046
592.918	202.653
596.863	287.599
600.805	281.641
604.746	327.688
608.685	362.322
612.621	504.036
616.557	507.499
620.49	354.885
624.421	622.141
628.351	531.515
632.279	456.412
636.205	670.084
640.129	1407.05
644.051	2467.97
647.972	1771.83
651.89	940.623
655.807	428.355
659.722	306.027
663.636	166.08
667.547	112.187
671.457	129.676
675.365	50.094
679.271	77.41
683.175	85.617
687.077	77.256
690.978	44.641
694.877	38.632
698.774	32.871
702.669	44.774
706.562	62.414
710.454	30.563
714.344	2.293
718.232	8.296
722.118	18.661
726.002	19.473
729.885	42.294
733.766	12.075
737.645	19.239
741.522	25.296
745.397	41.738
749.271	65.17
753.143	6.399
757.013	74.09
760.881	3.41
764.748	25.053
768.613	94.484
772.476	110.847
776.337	68.19
780.196	105.537
784.054	3.896
787.91	74.296
791.764	130.726
795.616	88.171
799.467	54.632
803.316	180.113
807.163	157.631
811.008	221.18
814.851	146.755
818.693	209.361
822.533	215
826.371	251.57
830.208	257.181
834.042	275.837
837.875	405.631
841.706	497.243
845.536	654.636
849.363	881.365
853.189	1243.37
857.013	1489.9
860.836	1374.53
864.656	997.158
868.475	799.353
872.292	694.963
876.108	666.879
879.922	724.975
883.733	683.486
887.544	887.843
891.352	932.271
895.159	941.524
898.964	1181.21
902.767	1457.01
906.568	1866.72
910.368	2181.26
914.166	3137.1
917.962	4708.3
921.757	6847.36
925.55	9857.7
929.341	12129.2
933.13	18391.8
936.918	35616.2
940.703	28332
944.488	13107.9
948.27	6542.88
952.051	3981.97
955.83	2642.19
959.607	1932.97
963.383	1514.41
967.156	1292.94
970.928	1013.64
974.699	933.387
978.468	887.132
982.234	860.072
986	727.161
989.763	642.598
993.525	558.697
997.285	644.426
1001.04	899.04
1004.8	908.784
1008.55	1018.89
1012.31	864.401
1016.06	552.351
1019.81	507.283
1023.56	538.797
1027.31	349.243
1031.05	234.907
1034.79	295.967
1038.53	340.623
1042.27	246.962
1046.01	234.543
1049.75	130.851
1053.48	280.584
1057.22	281.491
1060.95	237.529
1064.68	212.327
1068.4	236.138
1072.13	138.69
1075.86	129.017
1079.58	206.325
1083.3	316.214
1087.02	176.686
1090.74	106.557
1094.45	158.408
1098.17	92.242
1101.88	133.051
1105.59	37.173
1109.3	123.261
1113.01	48.528
1116.71	2.244
1120.42	12.79
1124.12	249.276
1127.82	18.699
1131.52	111.053
1135.22	24.33
1138.91	139.403
1142.61	16.282
1146.3	74.744
1149.99	38.346
1153.68	32.255
1157.37	29.438
1161.06	23.766
1164.74	14.86
1168.42	46.465
1172.1	15.674
1175.78	59.771
1179.46	11.257
1183.14	174.801
1186.81	82.751
1190.48	113.388
1194.15	114.273
1197.83	0.214
1201.49	125.107
1205.16	146.449
1208.82	159.792
1212.49	111.292
1216.15	26.741
1219.81	154.571
1223.46	59.88
1227.12	163.032
1230.78	100.595
1234.43	152.672
1238.08	283.085
1241.73	212.487
1245.38	267.111
1249.03	261.334
1252.67	221.719
1256.31	108.376
1259.95	125.484
1263.6	172.351
1267.23	155.04
1270.87	237.419
1274.51	285.443
1278.14	244.696
1281.77	220.47
1285.4	204.945
1289.03	89.401
1292.66	219.314
1296.28	229.882
1299.91	254.152
1303.53	209.714
1307.15	184.537
1310.77	240.243
1314.38	363.409
1318	129.322
1321.61	211.668
1325.23	297.728
1328.84	93.929
1332.45	132.542
1336.06	59.564
1339.66	105.898
1343.27	20.046
1346.87	131.356
1350.47	96.865
1354.07	81.838
1357.67	56.232
1361.26	16.915
1364.86	31.952
1368.45	174.585
1372.04	67.296
1375.63	183.046
1379.22	198.848
1382.81	267.403
1386.39	128.09
1389.98	172.666
1393.56	215.38
1397.14	42.692
1400.72	148.298
1404.3	44.855
1407.87	113.426
1411.45	172.164
1415.02	89.515
1418.59	170.501
1422.16	167.935
1425.73	102.479
1429.29	85.771
