Measurement: Raman, 514 nm, ccw, Raman Data Processed
Mineral: Topaz
Rruff sample: R050176
Ideal chemistry: Al_2_SiO_4_F_2_
Locality: Jos Plateau, Nigeria
Source: Marcus Origlieri
Description: Colorless prismatic crystal
Measured chemistry: Al_2.000_Si_1.000_O_4.000_(F_1.438_(OH)_0.562_)
Pin_id: L00136
Orientation: Laser parallel to -c* (0 0 -1). Fiducial mark perpendicular to laser is parallel to a [1 0 0]
Raman shift (cm-1)	intensity
94.071	0
98.251	102.92
102.428	128.525
106.604	410.106
110.777	3005.64
114.949	882.739
119.119	687.064
123.286	263.838
127.452	240.296
131.615	207.219
135.777	240.774
139.937	228.48
144.094	130.219
148.25	276.224
152.403	902.832
156.555	2178.36
160.705	325.333
164.853	155.575
168.998	177.93
173.142	16.277
177.284	31.48
181.424	94.809
185.562	158.539
189.698	78.847
193.831	78.49
197.963	57.197
202.093	3.28
206.221	6.202
210.347	75.196
214.472	63.866
218.594	164.802
222.714	136.994
226.832	355.43
230.948	995.112
235.063	5663.02
239.175	24516.2
243.286	13059.5
247.394	2692.1
251.501	1364.88
255.605	1247.87
259.708	2221.57
263.808	12271.8
267.907	53047.6
272.004	13216.4
276.099	2831.99
280.192	2812.48
284.283	8906.4
288.372	9518.53
292.459	2560.69
296.544	1320.62
300.627	907.529
304.709	918.322
308.788	822.875
312.865	723.029
316.941	711.835
321.015	835.366
325.086	995.089
329.156	2059.99
333.224	3853.04
337.29	1194.23
341.354	624.557
345.416	485.005
349.476	400.237
353.534	494.926
357.591	561.719
361.645	333.625
365.698	203.668
369.748	284.548
373.797	373.763
377.844	243.035
381.889	178.43
385.932	152.956
389.973	323.559
394.012	361.245
398.049	749.013
402.084	1822.88
406.118	1277.81
410.15	335.765
414.179	48.736
418.207	65.709
422.233	40.68
426.257	90.752
430.279	47.856
434.299	67.018
438.318	24.079
442.334	30.779
446.349	73.776
450.361	75.098
454.372	51.081
458.381	12.003
462.388	23.011
466.394	121.228
470.397	18.247
474.398	110.658
478.398	121.009
482.396	112.304
486.391	179.543
490.385	505.725
494.377	354.841
498.368	296.169
502.356	246.148
506.342	456.917
510.327	958.223
514.31	2286.09
518.291	7146.12
522.27	7040.61
526.247	2061.52
530.222	772.893
534.196	370.442
538.167	282.042
542.137	205.568
546.105	368.05
550.071	501.239
554.035	835.285
557.998	1921.85
561.958	2783.59
565.917	1428.67
569.874	655.519
573.829	406.61
577.782	397.546
581.733	217.344
585.683	332.772
589.63	212.69
593.576	178.116
597.52	226.329
601.462	312.557
605.402	238.126
609.341	73.404
613.277	107.523
617.212	214.385
621.145	374.021
625.076	282.012
629.006	237.882
632.933	226.533
636.859	178.392
640.783	119.214
644.705	200.924
648.625	249.528
652.543	210.023
656.46	195.41
660.375	119.688
664.288	47.85
668.199	66.889
672.108	19.825
676.016	72.614
679.921	126.188
683.825	17.535
687.727	28.732
691.628	19.793
695.526	76.679
699.423	162.314
703.318	45.684
707.211	47.121
711.102	53.835
714.992	139.591
718.879	77.124
722.765	10.492
726.649	16.245
730.532	130.911
734.412	49.017
738.291	48.077
742.168	62.111
746.043	26.864
749.916	93.876
753.788	13.036
757.658	46.779
761.526	130.693
765.392	36.076
769.257	27.704
773.119	82.6
776.98	80.936
780.839	176.413
784.697	129.976
788.552	61.44
792.406	577.122
796.258	136.708
800.108	152.323
803.957	106.008
807.804	180.747
811.649	149.263
815.492	83.123
819.333	197.74
823.173	221.606
827.011	218.54
830.847	148.432
834.681	65.765
838.514	111.607
842.345	419.512
846.174	538.65
850.001	783.748
853.827	880.104
857.651	1055.41
861.473	800.908
865.293	584.002
869.112	686.31
872.928	662.438
876.744	683.815
880.557	781.525
884.369	960.066
888.178	1131.06
891.987	1228.22
895.793	1491.57
899.598	2063.22
903.401	2724.38
907.202	3581.76
911.001	4777.96
914.799	7282.36
918.595	11505.9
922.389	16420.7
926.182	18358.7
929.972	15136.8
933.761	11627
937.549	9728.11
941.334	6656.32
945.118	4367.13
948.9	2897.12
952.681	2084.29
956.459	1520.89
960.236	1390.31
964.012	1109.64
967.785	928.542
971.557	734.357
975.327	714.65
979.095	866.135
982.862	1011.84
986.627	1057.43
990.39	612.499
994.152	410.677
997.912	265.933
1001.67	472.328
1005.43	624.487
1009.18	747.915
1012.93	571.592
1016.68	469.525
1020.43	190.722
1024.18	168.158
1027.93	275.824
1031.67	165.203
1035.42	177.29
1039.16	306.578
1042.9	153.147
1046.63	95.946
1050.37	172.705
1054.11	31.86
1057.84	138.088
1061.57	257.951
1065.3	227.486
1069.03	141.163
1072.75	5.02
1076.47	72.954
1080.2	193.034
1083.92	266.263
1087.64	276.655
1091.36	169.198
1095.07	150.874
1098.79	29.667
1102.5	106.434
1106.21	159.539
1109.92	120.606
1113.62	124.664
1117.33	68.833
1121.04	170.106
1124.74	47.5
1128.44	32.201
1132.14	42.167
1135.83	8.541
1139.53	159.483
1143.22	179.909
1146.92	59.384
1150.61	167.919
1154.3	227.792
1157.98	395.688
1161.67	725.209
1165.35	817.135
1169.04	643.225
1172.72	436.257
1176.4	303.335
1180.07	86.544
1183.75	35.727
1187.42	17.055
1191.1	43.616
1194.77	21.762
1198.44	226.804
1202.1	458.903
1205.77	220.642
1209.43	210.58
1213.1	148.199
1216.76	33.849
1220.42	175.178
1224.07	317.386
1227.73	333.317
1231.38	363.09
1235.04	482.999
1238.69	254.354
1242.34	330.575
1245.99	31.327
1249.63	219.396
1253.28	224.564
1256.92	315.466
1260.56	432.85
1264.2	559.735
1267.84	420.658
1271.48	300.639
1275.11	199.898
1278.74	72.668
1282.38	6.473
1286.01	108.453
1289.63	144.59
1293.26	308.943
1296.89	533.264
1300.51	168.623
1304.13	314.773
1307.75	153.928
1311.37	66.074
1314.99	103.49
1318.6	203.01
1322.22	411.619
1325.83	387.484
1329.44	400.785
1333.05	438.635
1336.66	324.783
1340.26	206.029
1343.87	6.041
1347.47	2.893
1351.07	80.955
1354.67	258.73
1358.27	283.1
1361.86	485.176
1365.46	477.654
1369.05	0
