Measurement: Raman, 514 nm, ccw, Raman Data Processed
Mineral: Topaz
Rruff sample: R050176
Ideal chemistry: Al_2_SiO_4_F_2_
Locality: Jos Plateau, Nigeria
Source: Marcus Origlieri
Description: Colorless prismatic crystal
Measured chemistry: Al_2.000_Si_1.000_O_4.000_(F_1.438_(OH)_0.562_)
Pin_id: L00271
Orientation: Laser parallel to a* (1 0 0). Fiducial mark perpendicular to laser is parallel to b [0 1 0]
Raman shift (cm-1)	intensity
95.465	0
99.644	87.305
103.82	211.903
107.995	358.058
112.168	6775.55
116.339	1270.97
120.508	377.367
124.675	236.224
128.84	150.619
133.003	244.296
137.164	269.274
141.323	67.074
145.48	218.128
149.635	509.267
153.788	3022.88
157.939	1872.68
162.088	1128.53
166.235	5205.32
170.38	1087.07
174.523	201.656
178.664	19.949
182.803	145.458
186.94	50.23
191.076	76.174
195.209	15.24
199.34	90.03
203.47	9.804
207.597	61.282
211.722	84.583
215.846	117.787
219.967	75.335
224.087	125.218
228.204	486.274
232.32	1599.59
236.434	9541.21
240.545	34049.7
244.655	7079.97
248.763	1578.57
252.869	1149.49
256.973	1203.71
261.075	2788.92
265.175	15978.2
269.273	42941
273.369	6293.39
277.463	3662.07
281.556	12152.9
285.646	48494.3
289.734	21951.1
293.821	4826.13
297.905	2071.5
301.988	1381.18
306.069	1123.08
310.147	1072.05
314.224	2423.13
318.299	4929.38
322.372	1552.82
326.443	2467.49
330.512	11769.4
334.579	12830.5
338.645	2628.76
342.708	909.258
346.769	509.701
350.829	230.638
354.887	175.587
358.942	33.518
362.996	1.557
367.048	253.774
371.098	711.56
375.146	174.597
379.192	61.249
383.236	44.043
387.279	235.001
391.319	317.07
395.358	1352.23
399.394	5155.48
403.429	12996.8
407.462	5275.23
411.493	1347.79
415.522	524.473
419.549	256.328
423.575	448.68
427.598	85.552
431.619	71.648
435.639	13.165
439.657	41.28
443.673	16.355
447.687	622.468
451.699	3590.65
455.709	14179.9
459.717	11262.2
463.724	3170.72
467.728	1204.01
471.731	588.553
475.732	201.858
479.731	117.145
483.728	201.409
487.723	663.645
491.716	1090.85
495.708	249.006
499.697	44.118
503.685	93.228
507.671	412.587
511.655	573.109
515.637	273.208
519.617	524.893
523.596	302.252
527.572	136.825
531.547	8.199
535.52	30.713
539.491	144.76
543.46	234.507
547.427	233.205
551.393	497.012
555.356	1765.66
559.318	3906.5
563.278	3095.45
567.236	1135.09
571.192	411.552
575.147	203.004
579.099	166.911
583.05	145.622
586.999	35.543
590.946	85.989
594.891	216.283
598.834	332.567
602.776	228.484
606.715	167.204
610.653	207.026
614.589	208.272
618.523	279.297
622.456	285.669
626.386	205.945
630.315	292.309
634.242	469.39
638.167	714.24
642.09	1462.86
646.012	1649.25
649.931	775.412
653.849	430.345
657.765	216.048
661.679	92.488
665.592	23.297
669.502	45.491
673.411	167.888
677.318	86.871
681.223	100.566
685.126	13.614
689.028	51.329
692.927	7.108
696.825	66.028
700.721	24.65
704.616	197.329
708.508	488.109
712.399	235.693
716.288	137.06
720.175	15.788
724.06	2.013
727.944	90.512
731.825	123.68
735.705	77.488
739.584	77.357
743.46	125.458
747.334	13.801
751.207	136.11
755.078	142.523
758.947	16.146
762.815	92.355
766.68	94.884
770.544	126.985
774.406	182.992
778.267	192.578
782.125	53.68
785.982	55.668
789.837	121.176
793.69	194.607
797.542	238.973
801.391	264.276
805.239	196.604
809.085	322.883
812.93	475.118
816.772	590.021
820.613	638.695
824.452	774.826
828.29	895.991
832.125	1261.2
835.959	1701.09
839.791	2972.09
843.621	5415.59
847.45	9216.81
851.277	12480.6
855.102	14500.2
858.925	11831.3
862.746	6834.39
866.566	4153.58
870.384	2834.52
874.2	2187.71
878.015	1873.95
881.828	1627.38
885.639	1660.44
889.448	1549
893.256	1699.2
897.061	1929.89
900.865	2426.27
904.668	2939.27
908.468	4097.67
912.267	5688.01
916.064	8830.23
919.86	13795
923.653	19139.9
927.445	20256.1
931.236	19833.8
935.024	23524.6
938.811	19513.3
942.596	10051.3
946.379	5824.44
950.161	3681.8
953.94	2788.42
957.719	2070.19
961.495	1535.18
965.27	1083.39
969.043	931.167
972.814	890.835
976.583	889.803
980.351	970.517
984.117	932.338
987.882	521.259
991.644	508.765
995.405	643.15
999.165	837.969
1002.92	1718.48
1006.68	2471.09
1010.43	2197.84
1014.18	1066.81
1017.93	563.98
1021.68	678.371
1025.43	632.992
1029.18	364.9
1032.92	235.137
1036.66	69.371
1040.4	167.973
1044.14	179.283
1047.88	280.609
1051.62	397.498
1055.35	322.125
1059.08	159.213
1062.81	129.459
1066.54	81.006
1070.27	207.781
1073.99	260.703
1077.72	332.754
1081.44	465.943
1085.16	340.32
1088.88	42.898
1092.59	52.688
1096.31	74.082
1100.02	217.639
1103.73	269.348
1107.44	615.18
1111.15	188.162
1114.86	1.814
1118.57	195.037
1122.27	50.381
1125.97	5.848
1129.67	302.643
1133.37	362.699
1137.07	289.494
1140.76	161.291
1144.45	177.834
1148.15	150.275
1151.84	13.787
1155.53	301.779
1159.21	407.791
1162.9	792.047
1166.58	732.189
1170.26	503.777
1173.94	213.5
1177.62	143.064
1181.3	2.814
1184.97	112.178
1188.65	288.143
1192.32	398.057
1195.99	235.672
1199.66	163.713
1203.33	104.941
1206.99	4.643
1210.65	157.949
1214.32	267.725
1217.98	423.705
1221.64	505.582
1225.29	399.6
1228.95	202.67
1232.6	196.203
1236.26	37.09
1239.91	266.879
1243.56	144.711
1247.2	589.395
1250.85	557.189
1254.49	658.949
1258.13	478.943
1261.78	410.445
1265.41	181.391
1269.05	143.941
1272.69	200.125
1276.32	402.84
1279.95	584.229
1283.59	648.352
1287.21	730.889
1290.84	501.113
1294.47	283.244
1298.09	212.436
1301.72	32.486
1305.34	25.047
1308.96	322.17
1312.58	496.773
1316.19	651.602
1319.81	655.793
1323.42	601.824
1327.03	0
