Measurement: Raman, 514 nm, ccw, Raman Data Processed
Mineral: Topaz
Rruff sample: R040121
Ideal chemistry: Al_2_SiO_4_F_2_
Locality: Tepetate, San Luis Potosi, Mexico
Source: University of Arizona Mineral Museum
Description: Fragments of a prismatic single crystal
Measured chemistry: Al_2.00_(Si_0.99_Al_0.02_)(F_0.82_(OH)_0.18_)_2_
Pin_id: L00213
Orientation: Laser parallel to -b* (0 -1 0). Fiducial mark perpendicular to laser is parallel to -c [0 0 -1]
Raman shift (cm-1)	intensity
90.587	0
94.768	1.429
98.947	49.004
103.124	18.825
107.3	212.052
111.473	169
115.644	791.907
119.813	571.605
123.981	144.88
128.146	79.174
132.309	100.967
136.47	105.198
140.63	164.281
144.787	127.714
148.942	705.072
153.096	2597.81
157.247	439.192
161.396	112.059
165.544	46.896
169.689	28.67
173.833	5.356
177.974	53.573
182.114	7.528
186.251	18.859
190.387	46.565
194.52	36.651
198.652	70.693
202.782	3.582
206.909	99.23
211.035	51.638
215.159	29.477
219.281	178.731
223.4	245.011
227.518	575.653
231.634	2643.72
235.748	17649.4
239.86	26388.8
243.97	3971.8
248.079	1313.7
252.185	908.565
256.289	1416.69
260.391	6464.92
264.492	40993.5
268.59	25485.5
272.687	3544.18
276.781	1841.93
280.874	5156.8
284.964	13027.2
289.053	2700.41
293.14	761.116
297.225	404.012
301.308	274.856
305.389	250.911
309.468	194.803
313.545	269.35
317.62	208.773
321.693	249.866
325.765	777.188
329.834	3837.4
333.902	2081.24
337.967	532.321
342.031	233.896
346.093	154.143
350.153	147.789
354.21	104.694
358.267	120.435
362.321	127.189
366.373	109.685
370.423	186.998
374.471	232.162
378.518	42.713
382.563	51.699
386.605	79.799
390.646	118.14
394.685	147.463
398.722	919.794
402.757	2767.18
406.79	644.608
410.821	231.058
414.851	178.497
418.878	89.887
422.904	98.583
426.927	65.233
430.949	75.185
434.969	64.943
438.987	25.534
443.003	57.992
447.018	40.402
451.03	3.622
455.041	9.38
459.049	23.462
463.056	6.797
467.061	77.844
471.064	112.429
475.065	35.917
479.064	195.37
483.062	166.764
487.057	186.103
491.051	413.408
495.043	188.757
499.032	164.108
503.02	284.497
507.007	433.202
510.991	957.5
514.973	3345.8
518.954	10689.1
522.933	4947.17
526.91	1178.3
530.885	506.521
534.858	308.039
538.829	210.651
542.799	126.267
546.766	200.899
550.732	322.596
554.696	770.827
558.658	2369.97
562.618	2913.57
566.576	1112.07
570.533	555.926
574.488	343.518
578.44	255.927
582.391	270.046
586.341	263.884
590.288	213.744
594.233	147.081
598.177	142.243
602.119	176.011
606.059	176.982
609.997	165.271
613.933	273.245
617.868	292.374
621.801	367.152
625.731	472.342
629.66	335.829
633.588	243.895
637.513	188.33
641.437	385.712
645.358	358.038
649.278	312.307
653.196	275.521
657.113	158.68
661.027	15.785
664.94	15.184
668.851	18.722
672.76	72.572
676.667	6.369
680.572	17.262
684.476	28.768
688.378	62.389
692.278	4.043
696.176	37.454
700.072	13.907
703.967	15.236
707.86	17.592
711.751	0.469
715.64	100.615
719.527	4.006
723.413	4.545
727.297	14.208
731.179	35.06
735.059	1.693
738.937	43.517
742.814	34.692
746.689	26.844
750.562	30.014
754.433	2.193
758.303	33.668
762.17	23.317
766.036	93.369
769.901	67.462
773.763	84.572
777.624	93.726
781.482	13.098
785.339	44.086
789.195	32.291
793.048	47.516
796.9	127.761
800.75	36.03
804.598	32.324
808.445	140.646
812.289	80.997
816.132	149.164
819.973	140.657
823.813	192.003
827.65	257.419
831.486	307.288
835.32	286.788
839.152	284.279
842.983	409.011
846.812	592.824
850.639	958.869
854.464	1320.62
858.288	1362.98
862.11	1058.17
865.93	891.568
869.748	751.666
873.564	701.637
877.379	777.653
881.192	820.807
885.004	915.754
888.813	1077.58
892.621	1341.18
896.427	1542.58
900.232	1864.11
904.034	2398.66
907.835	3244.35
911.634	4387.07
915.432	6647.35
919.227	10611.4
923.021	16171.2
926.813	20106.4
930.604	17681.7
934.393	12518.9
938.18	9791.43
941.965	6861.1
945.749	4459.88
949.53	3005.75
953.311	2117.74
957.089	1705.81
960.866	1298.99
964.641	1154.27
968.414	954.243
972.185	979.875
975.955	1022.49
979.723	1313.21
983.49	2247.01
987.254	2361.92
991.017	1354.49
994.779	786.76
998.538	536.985
1002.3	855.246
1006.05	450.722
1009.81	368.779
1013.56	256.144
1017.31	278.884
1021.06	333.777
1024.81	305.19
1028.55	230.786
1032.3	206.675
1036.04	224.089
1039.78	239.531
1043.52	227.848
1047.26	166.593
1050.99	163.71
1054.73	199.833
1058.46	151.926
1062.19	190.699
1065.92	228.598
1069.65	291.74
1073.37	387.89
1077.1	299.145
1080.82	318.302
1084.54	222.478
1088.26	166.951
1091.97	152.013
1095.69	99.077
1099.4	65.14
1103.12	25.301
1106.83	83.348
1110.54	63.127
1114.24	32.462
1117.95	6.572
1121.65	219.487
1125.35	175.351
1129.06	52.181
1132.75	17.978
1136.45	23.732
1140.15	84.558
1143.84	27.945
1147.53	9.207
1151.22	31.25
1154.91	15.091
1158.6	25.086
1162.28	28.557
1165.97	65
1169.65	21.589
1173.33	20.88
1177.01	0.085
1180.69	38.163
1184.36	22.266
1188.04	35.421
1191.71	45.998
1195.38	35.431
1199.05	34.542
1202.71	56.047
1206.38	40.249
1210.04	11.588
1213.71	92.944
1217.37	163.395
1221.03	9.649
1224.68	172.607
1228.34	125.544
1231.99	67.294
1235.65	100.088
1239.3	163.289
1242.95	106.556
1246.59	241.538
1250.24	126.39
1253.88	32.198
1257.53	136.627
1261.17	126.979
1264.81	180.266
1268.45	181.842
1272.08	215.321
1275.72	272.093
1279.35	131.438
1282.98	107.118
1286.61	161.369
1290.24	147.489
1293.87	197.803
1297.49	149.925
1301.11	108.467
1304.73	183.339
1308.36	99.745
1311.97	223.406
1315.59	206.742
1319.2	230.915
1322.82	222.465
1326.43	222.235
1330.04	100.792
1333.65	57.189
1337.26	14.968
1340.86	73.21
1344.47	14.6
1348.07	105.282
1351.67	55.968
1355.27	20.541
1358.87	6.366
1362.46	101.985
1366.06	72.905
1369.65	75.786
1373.24	60.604
1376.83	140.914
1380.42	42.232
1384	76.234
1387.59	112.736
1391.17	69.718
1394.75	83.149
1398.33	71.863
1401.91	86.138
1405.49	78.711
1409.06	84.057
1412.64	67.455
1416.21	135.103
1419.78	15.336
1423.35	95.42
1426.91	31.453
1430.48	0.167
