Measurement: Raman, 514 nm, ccw, Raman Data Processed
Mineral: Topaz
Rruff sample: R040121
Ideal chemistry: Al_2_SiO_4_F_2_
Locality: Tepetate, San Luis Potosi, Mexico
Source: University of Arizona Mineral Museum
Description: Fragments of a prismatic single crystal
Measured chemistry: Al_2.00_(Si_0.99_Al_0.02_)(F_0.82_(OH)_0.18_)_2_
Pin_id: L00213
Orientation: Laser parallel to -b* (0 -1 0). Fiducial mark perpendicular to laser is parallel to -c [0 0 -1]
Raman shift (cm-1)	intensity
91.981	0
96.161	14.629
100.34	1.252
104.516	129.405
108.691	294.249
112.864	483.625
117.034	1218
121.203	809.895
125.369	100.663
129.534	205.297
133.696	84.396
137.857	247.378
142.016	211.337
146.172	493.498
150.327	1970.46
154.48	2777.31
158.63	384.974
162.779	213.003
166.926	88.747
171.07	46.271
175.213	49.601
179.354	37.024
183.493	127.625
187.63	314.011
191.765	5.151
195.898	53.207
200.029	62.96
204.158	64.86
208.285	90.593
212.41	2.319
216.533	12.626
220.654	108.867
224.773	257.041
228.891	848.112
233.006	5631.48
237.119	31748.5
241.231	16326.3
245.34	2951.1
249.448	964.999
253.553	871.054
257.657	1772.21
261.758	11090.2
265.858	48754.4
269.956	11379.4
274.052	2502.11
278.146	3625.16
282.237	17153.7
286.327	20211
290.416	3365.72
294.502	747.859
298.586	316.426
302.668	178.08
306.749	141.765
310.827	117.501
314.903	127.25
318.978	159.415
323.051	216.97
327.121	1298.47
331.19	2919.22
335.257	631.804
339.322	164.678
343.385	45.162
347.446	50.293
351.505	147.166
355.563	105.451
359.618	105.807
363.672	249.027
367.723	333.542
371.773	1777.48
375.821	1270.38
379.866	157.015
383.91	26.269
387.952	15.306
391.992	85.134
396.031	502.802
400.067	2898.77
404.101	3167.99
408.134	654.425
412.165	246.215
416.193	96.315
420.22	191.556
424.245	111.695
428.268	133.7
432.289	164.617
436.309	89.46
440.326	464.224
444.342	478.937
448.355	287.6
452.367	654.241
456.377	1146.9
460.385	246.565
464.391	175.102
468.395	326.966
472.398	667.225
476.398	930.458
480.397	2110.78
484.394	1078.42
488.389	1002.2
492.382	1016.06
496.373	280.046
500.362	193.136
504.349	248.696
508.335	355.506
512.319	843.64
516.3	3218.59
520.28	6036.44
524.259	1757.5
528.235	594.486
532.209	397.521
536.182	302.63
540.152	189.689
544.121	328.097
548.088	452.214
552.053	711.879
556.017	2048.46
559.978	4851.74
563.938	3533.01
567.895	1294.74
571.851	600.122
575.805	443.558
579.758	396.201
583.708	348.746
587.657	308.093
591.603	292.299
595.548	210.933
599.491	245.868
603.432	245.754
607.372	247.365
611.309	290.562
615.245	345.811
619.179	266.354
623.111	435.765
627.041	451.049
630.97	360.212
634.896	420.259
638.821	995.184
642.744	1566.98
646.665	1152.64
650.584	515.157
654.502	462.525
658.418	314.743
662.331	159.813
666.244	70.463
670.154	58.507
674.062	7.083
677.969	72.459
681.874	173.656
685.777	338.683
689.678	234.541
693.577	121.231
697.475	80.257
701.371	42.834
705.265	1.571
709.157	56.906
713.047	73.264
716.936	32.067
720.823	25.35
724.708	105.16
728.591	43.706
732.472	25.771
736.352	47.836
740.23	31.246
744.106	20.452
747.98	92.4
751.853	28.846
755.723	26.301
759.592	72.038
763.459	27.776
767.325	21.823
771.188	79.938
775.05	168.583
778.91	102.116
782.768	84.542
786.625	93.861
790.479	154.08
794.332	241.2
798.183	267.328
802.033	224.157
805.88	345
809.726	260.76
813.57	402.437
817.413	339.037
821.253	318.968
825.092	351.024
828.929	528.998
832.764	542.333
836.598	664.215
840.429	758.49
844.259	836.771
848.088	1050.03
851.914	1323.14
855.739	1777.01
859.562	1605.34
863.383	1398.85
867.203	1229.09
871.02	1086.31
874.836	1006.37
878.65	1145.46
882.463	1171.95
886.274	1122.6
890.083	1363.27
893.89	1539.58
897.695	1826.39
901.499	1944.4
905.301	2550.46
909.102	3310.84
912.9	4329.04
916.697	6276.52
920.492	9788.82
924.285	13949.2
928.077	15984.7
931.867	14912.2
935.655	17810.9
939.442	17502.7
943.226	9452.62
947.009	5573.61
950.791	3842.7
954.57	2820.88
958.348	2357.14
962.124	2103.51
965.899	2054.01
969.671	2282.61
973.442	2474.3
977.211	3573.1
980.979	6358.46
984.745	11258.1
988.509	9287.16
992.271	4241.16
996.032	2356.15
999.791	1874.2
1003.55	1543.9
1007.3	1099.31
1011.06	890.388
1014.81	768.836
1018.56	783.691
1022.31	713.033
1026.06	743.637
1029.8	588.047
1033.55	635.991
1037.29	449.509
1041.03	521.061
1044.77	459.271
1048.5	566.674
1052.24	568.488
1055.97	556.957
1059.7	450.456
1063.43	486.529
1067.16	508.19
1070.89	544.329
1074.61	558.708
1078.34	554.549
1082.06	492.563
1085.78	396.226
1089.5	307.302
1093.21	140.086
1096.93	203.776
1100.64	107.271
1104.35	138.558
1108.06	61.515
1111.77	50.628
1115.48	95.114
1119.18	100.051
1122.89	494.688
1126.59	190.107
1130.29	5.44
1133.99	23.44
1137.68	106.643
1141.38	7.524
1145.07	31.287
1148.76	17.661
1152.45	34.976
1156.14	1.352
1159.83	13.466
1163.51	3.218
1167.19	86.5
1170.88	27.717
1174.56	21.779
1178.23	2.969
1181.91	35.215
1185.59	1.3
1189.26	26.317
1192.93	139.72
1196.6	15.257
1200.27	41.776
1203.94	41.927
1207.6	41.695
1211.27	8.233
1214.93	2.184
1218.59	23.876
1222.25	39.177
1225.9	161.148
1229.56	110.503
1233.21	167.748
1236.86	230.719
1240.51	286.348
1244.16	113.56
1247.81	142.497
1251.45	247.05
1255.1	238.145
1258.74	182.023
1262.38	159.609
1266.02	278.883
1269.66	219.125
1273.29	235.629
1276.93	367.901
1280.56	235.811
1284.19	228.029
1287.82	172.622
1291.45	312.115
1295.07	339.992
1298.7	302.187
1302.32	255.208
1305.94	190.12
1309.56	462.004
1313.18	270.751
1316.8	339.951
1320.41	366.045
1324.02	263.536
1327.63	169.683
1331.24	132.201
1334.85	82.245
1338.46	3.165
1342.06	83.367
1345.67	34.752
1349.27	55.968
1352.87	203.185
1356.47	171.279
1360.07	182.326
1363.66	209.65
1367.25	277.5
1370.85	219.796
1374.44	237.11
1378.03	144.621
1381.61	165.608
1385.2	274.029
1388.78	160.231
1392.37	105.833
1395.95	107.155
1399.53	28.852
1403.1	157.61
1406.68	74.499
1410.26	16.464
1413.83	12.071
1417.4	0.896
1420.97	59.008
1424.54	67.802
1428.1	0
