Measurement: Raman, 514 nm, ccw, Raman Data Processed
Mineral: Topaz
Rruff sample: R050176
Ideal chemistry: Al_2_SiO_4_F_2_
Locality: Jos Plateau, Nigeria
Source: Marcus Origlieri
Description: Colorless prismatic crystal
Measured chemistry: Al_2.000_Si_1.000_O_4.000_(F_1.438_(OH)_0.562_)
Pin_id: L00271
Orientation: Laser parallel to a* (1 0 0). Fiducial mark perpendicular to laser is parallel to b [0 1 0]
Raman shift (cm-1)	intensity
96.858	0
101.036	120.344
105.212	341.185
109.387	614.426
113.559	9242.27
117.729	790.82
121.897	459.564
126.063	417.562
130.228	408.723
134.39	281.081
138.55	343.667
142.709	478.256
146.865	355.905
151.019	790.846
155.171	3450.83
159.322	715.805
163.47	441.752
167.617	477.15
171.761	151.242
175.904	137.909
180.044	68.987
184.183	11.536
188.319	121.396
192.454	109.018
196.586	59.575
200.717	45.649
204.846	120.691
208.972	39.473
213.097	94.87
217.22	9.474
221.341	71.625
225.46	3.585
229.577	297.2
233.692	1703.53
237.805	8327.91
241.916	13655.1
246.025	2271.9
250.132	1024.24
254.237	748.131
258.34	1061.57
262.442	5207.31
266.541	26602.3
270.639	21272.1
274.734	3485.94
278.828	4757.39
282.919	20211
287.009	50697.7
291.097	12102.2
295.183	3278.44
299.266	1812.3
303.348	1190.73
307.428	973.688
311.507	860.017
315.583	1253.75
319.657	1337.83
323.729	2042.27
327.8	8157.04
331.868	31169.2
335.935	13331.8
339.999	3019.31
344.062	1245.97
348.123	742.549
352.182	335.935
356.239	305.302
360.294	375.668
364.347	130.857
368.398	140.146
372.448	159.145
376.495	155.961
380.54	250.347
384.584	322.915
388.626	557.095
392.666	1283.29
396.704	3657.72
400.74	11808.5
404.774	17755.5
408.806	5118.77
412.836	1512.77
416.865	460.895
420.891	219.702
424.916	100.156
428.939	99.118
432.959	104.984
436.978	36.127
440.996	307.487
445.011	811.328
449.024	2588.88
453.036	11133.1
457.045	30781.7
461.053	13975.5
465.059	4185.31
469.063	1810.22
473.065	845.202
477.065	616.245
481.063	502.343
485.06	403.488
489.054	350.673
493.047	338.889
497.038	116.13
501.027	13.643
505.014	37.186
508.999	14.147
512.982	77.791
516.964	145.542
520.944	109.001
524.921	49.192
528.897	78.122
532.871	210.01
536.844	82.149
540.814	75.126
544.783	59.942
548.749	278.841
552.714	366.462
556.677	806.417
560.638	1754.48
564.597	973.19
568.555	352.276
572.511	176.857
576.464	43.867
580.416	54.549
584.366	27.786
588.315	74.837
592.261	25.937
596.206	25.309
600.148	64.104
604.089	17.31
608.028	203.356
611.965	119.11
615.901	148.647
619.834	312.015
623.766	476.254
627.696	485.28
631.624	496.135
635.551	453.818
639.475	1085.33
643.398	2036.67
647.318	1629.83
651.237	646.83
655.155	233.657
659.07	164.608
662.984	105.818
666.895	114.603
670.805	104.523
674.713	51.187
678.62	60.227
682.524	51.638
686.427	96.836
690.328	45.863
694.227	50.927
698.124	73.544
702.02	158.597
705.913	36.37
709.805	91.962
713.695	152.622
717.584	46.664
721.47	97.946
725.355	20.648
729.238	47.906
733.119	28.565
736.998	43.206
740.876	2.799
744.752	157.621
748.626	105.098
752.498	30.332
756.368	57.47
760.237	7.61
764.104	80.252
767.969	94.807
771.832	10.034
775.693	2.728
779.553	115.524
783.411	240.801
787.267	202.114
791.122	401.469
794.974	421.865
798.825	265.313
802.674	508.84
806.522	415.469
810.367	476.204
814.211	596.068
818.053	799.354
821.893	862.087
825.732	1193.5
829.568	1736.33
833.403	2320.9
837.236	3545.8
841.068	6297.27
844.898	11511.5
848.726	17666.9
852.552	22417.8
856.376	24268.7
860.199	17266
864.02	9906.02
867.839	6181.47
871.656	4370.71
875.472	3572.83
879.286	2818.31
883.098	2338.61
886.909	2358.43
890.717	2257.19
894.524	2513.23
898.33	2742.26
902.133	3333.74
905.935	4449.61
909.735	6431.57
913.533	9238
917.33	14462.8
921.124	22228
924.918	28527.4
928.709	26659.1
932.499	20032.2
936.286	14709.5
940.073	8956.79
943.857	5738.68
947.64	3915.85
951.421	3107.51
955.2	2185.63
958.978	1618.68
962.753	1276.17
966.527	1125.34
970.3	1028.1
974.071	792.383
977.84	666.045
981.607	496.061
985.372	335.518
989.136	341.162
992.898	373.498
996.659	609.346
1000.42	738.545
1004.17	839.768
1007.93	1079.02
1011.68	773.537
1015.43	512.359
1019.18	562.514
1022.93	463.064
1026.68	225.965
1030.42	24.744
1034.17	128.215
1037.91	245.674
1041.65	336.055
1045.39	403.678
1049.12	220.578
1052.86	125.727
1056.59	71.539
1060.33	92.219
1064.06	219.107
1067.78	290.201
1071.51	361.203
1075.23	379.547
1078.96	194.113
1082.68	155.906
1086.4	30.389
1090.12	153.254
1093.83	387.145
1097.55	553.137
1101.26	384.328
1104.97	191.682
1108.68	102.984
1112.39	17.855
1116.1	106.777
1119.8	73.117
1123.5	293.16
1127.2	355.25
1130.9	134.416
1134.6	73.824
1138.3	173.49
1141.99	140.271
1145.69	208.738
1149.38	345.004
1153.07	525.248
1156.76	415.641
1160.44	245.445
1164.13	101.498
1167.81	45.033
1171.49	120.463
1175.17	168.537
1178.85	320.91
1182.52	303.668
1186.2	289.383
1189.87	205.258
1193.54	5.852
1197.21	47.234
1200.88	54.504
1204.55	454.072
1208.21	437.734
1211.88	426.348
1215.54	537.654
1219.2	439.283
1222.86	405.266
1226.51	116.127
1230.17	177.586
1233.82	222.701
1237.47	581.189
1241.12	565.658
1244.77	693.252
1248.42	601.945
1252.06	279.029
1255.71	230.576
1259.35	131.914
1262.99	28.609
1266.63	349.195
1270.26	690.848
1273.9	661.707
1277.53	660.961
1281.16	572.016
1284.8	303.07
1288.42	14.625
1292.05	8.705
1295.68	134.924
1299.3	376.811
1302.92	676.398
1306.55	733.1
1310.16	815.168
1313.78	575.172
1317.4	499.92
