Measurement: Raman, 514 nm, ccw, Raman Data Processed
Mineral: Topaz
Rruff sample: R050176
Ideal chemistry: Al_2_SiO_4_F_2_
Locality: Jos Plateau, Nigeria
Source: Marcus Origlieri
Description: Colorless prismatic crystal
Measured chemistry: Al_2.000_Si_1.000_O_4.000_(F_1.438_(OH)_0.562_)
Pin_id: L00136
Orientation: Laser parallel to -c* (0 0 -1). Fiducial mark perpendicular to laser is parallel to a [1 0 0]
Raman shift (cm-1)	intensity
96.858	0
101.036	91.304
105.212	306.714
109.387	2956.81
113.559	1639.87
117.729	769.841
121.897	384.438
126.063	328.676
130.228	315.763
134.39	197.39
138.55	311.386
142.709	195.755
146.865	250.243
151.019	678.419
155.171	2624.75
159.322	726.603
163.47	378.914
167.617	281.449
171.761	203.587
175.904	209.211
180.044	16.179
184.183	13.386
188.319	39.574
192.454	51.251
196.586	78.286
200.717	25.983
204.846	69.049
208.972	97.877
213.097	153.573
217.22	17.678
221.341	47.638
225.46	1.479
229.577	285.088
233.692	2011.2
237.805	9671.07
241.916	13575.7
246.025	2436.83
250.132	1081.57
254.237	942.854
258.34	1229.69
262.442	5700.23
266.541	29819.9
270.639	20768.4
274.734	3834.9
278.828	5244.85
282.919	22172.9
287.009	48852.8
291.097	12503.5
295.183	3403.8
299.266	1950.67
303.348	1222.07
307.428	878.947
311.507	1088.06
315.583	1225.51
319.657	1387.17
323.729	2192.09
327.8	8841.4
331.868	30295.1
335.935	12934.2
339.999	3136.49
344.062	1360.28
348.123	878.578
352.182	646.925
356.239	487.232
360.294	619.417
364.347	279.07
368.398	155.663
372.448	182.192
376.495	265.951
380.54	399.839
384.584	417.196
388.626	676.302
392.666	1526.21
396.704	3985.33
400.74	12355.8
404.774	16802.4
408.806	5072.4
412.836	1576.63
416.865	560.717
420.891	197.412
424.916	146.854
428.939	150.065
432.959	139.91
436.978	126.667
440.996	273.914
445.011	920.682
449.024	2767.75
453.036	11499.4
457.045	29262.6
461.053	13850.2
465.059	4237.44
469.063	1875.74
473.065	956.09
477.065	789.484
481.063	599.917
485.06	511.381
489.054	551.867
493.047	236.369
497.038	360.878
501.027	112.375
505.014	33.954
508.999	23.038
512.982	78.307
516.964	95.152
520.944	224.679
524.921	27.981
528.897	27.113
532.871	145
536.844	120.576
540.814	89.042
544.783	270.223
548.749	744.252
552.714	528.693
556.677	1066.97
560.638	1722.16
564.597	923.28
568.555	540.287
572.511	325.923
576.464	9.729
580.416	77.476
584.366	65.856
588.315	145.509
592.261	56.859
596.206	6.082
600.148	283.686
604.089	91.85
608.028	323.307
611.965	45.541
615.901	109.508
619.834	304.254
623.766	624.793
627.696	687.123
631.624	608.244
635.551	575.158
639.475	1114.87
643.398	2868.37
647.318	1581.65
651.237	802.738
655.155	302.617
659.07	268.465
662.984	22.736
666.895	295.486
670.805	38.475
674.713	38.469
678.62	15.389
682.524	97.232
686.427	168.074
690.328	9.443
694.227	2.494
698.124	66.643
702.02	152.373
705.913	104.123
709.805	33.65
713.695	176.021
717.584	9.16
721.47	26.562
725.355	21.369
729.238	37.504
733.119	77.369
736.998	17.449
740.876	86.613
744.752	193.758
748.626	114.969
752.498	74.479
756.368	61.559
760.237	151.568
764.104	208.969
767.969	183.027
771.832	6.4
775.693	17.191
779.553	34.986
783.411	262.797
787.267	447.623
791.122	396.479
794.974	244.365
798.825	355.295
802.674	687.328
806.522	710.508
810.367	630.771
814.211	665.123
818.053	856.01
821.893	881.441
825.732	1308.75
829.568	2059.14
833.403	2557.28
837.236	3744.17
841.068	6687.92
844.898	12080.5
848.726	18210.7
852.552	22599.4
856.376	23553.2
860.199	16161.4
864.02	9694.94
867.839	6190.32
871.656	4384.18
875.472	3728.86
879.286	2933.07
883.098	2327.57
886.909	2295.51
890.717	2451.89
894.524	2788.73
898.33	3412.11
902.133	4028.75
905.935	5192.07
909.735	7047.87
913.533	10197.2
917.33	15561.2
921.124	23691.6
924.918	29306.3
928.709	26771.3
932.499	19472.6
936.286	13942.3
940.073	8880.3
943.857	5764.6
947.64	3941.22
951.421	2905.52
955.2	2264.33
958.978	1693.92
962.753	1498.34
966.527	1358.85
970.3	1379.4
974.071	1003.4
977.84	847.803
981.607	692.033
985.372	465.461
989.136	547.004
992.898	586.58
996.659	589.352
1000.42	839.363
1004.17	993.445
1007.93	1222.96
1011.68	1267.79
1015.43	1146.96
1019.18	728.707
1022.93	622.373
1026.68	324.732
1030.42	138.492
1034.17	316.711
1037.91	406.332
1041.65	606.354
1045.39	420.867
1049.12	265.66
1052.86	18.104
1056.59	10.234
1060.33	219.359
1064.06	311.158
1067.78	494.113
1071.51	410.266
1075.23	344.672
1078.96	157.26
1082.68	117.951
1086.4	108.668
1090.12	289.16
1093.83	368.832
1097.55	513.662
1101.26	249.629
1104.97	163.518
1108.68	44.734
1112.39	2.016
1116.1	87.719
1119.8	209.5
1123.5	478.381
1127.2	285.352
1130.9	6.371
1134.6	24.332
1138.3	82.219
1141.99	32.965
1145.69	240.285
1149.38	384.799
1153.07	393.32
1156.76	36.59
1160.44	252.391
1164.13	19.678
1167.81	87.418
1171.49	44.078
1175.17	184.951
1178.85	517.012
1182.52	447.104
1186.2	153.363
1189.87	34.684
1193.54	24.396
1197.21	18.629
1200.88	97.602
1204.55	356.098
1208.21	441.891
1211.88	522.949
1215.54	529.508
1219.2	420.994
1222.86	372.217
1226.51	201.75
1230.17	237.744
1233.82	379.832
1237.47	676.738
1241.12	828.471
1244.77	540.029
1248.42	476.008
1252.06	313.035
1255.71	134.225
1259.35	125.775
1262.99	233.211
1266.63	608.977
1270.26	910.941
1273.9	771.506
1277.53	391.559
1281.16	501.91
1284.8	155.859
1288.42	46.342
1292.05	314.922
1295.68	400.701
1299.3	503.172
1302.92	860.504
1306.55	601.383
1310.16	670.27
1313.78	507.879
