Measurement: Raman, 514 nm, ccw, Raman Data Processed
Mineral: Topaz
Rruff sample: R050200
Ideal chemistry: Al_2_SiO_4_F_2_
Locality: Jos Plateau, Nigeria
Source: Marcus Origlieri
Description: Colorless water-worn single crystal
Measured chemistry: Al_2.000_Si_1.000_O_4.000_F_1.488_(OH)_0.512_
Pin_id: L00468
Orientation: Laser parallel to b* (0 1 0). Fiducial mark perpendicular to laser is parallel to c [0 0 1]
Raman shift (cm-1)	intensity
102.428	0
106.604	186.021
110.777	107.079
114.949	242.131
119.119	223.408
123.286	141.783
127.452	46.73
131.615	124.168
135.777	48.737
139.937	60.331
144.094	62.244
148.25	906.356
152.403	2442.98
156.555	853.767
160.705	254.235
164.853	234.226
168.998	154.441
173.142	186.397
177.284	352.166
181.424	425.108
185.562	367.295
189.698	286.844
193.831	370.558
197.963	443.16
202.093	392.472
206.221	700.318
210.347	222.822
214.472	52.983
218.594	58.199
222.714	962.112
226.832	694.051
230.948	3773.25
235.063	18424.5
239.175	26262.2
243.286	7886.22
247.394	2228.47
251.501	1182.52
255.605	1498.46
259.708	6833.21
263.808	29649
267.907	31322.9
272.004	7282.33
276.099	3717.56
280.192	10879.1
284.283	21266.3
288.372	9646.31
292.459	3044.68
296.544	1400.31
300.627	999.285
304.709	736.921
308.788	552.813
312.865	535.056
316.941	510.767
321.015	597.73
325.086	1030.29
329.156	2241.7
333.224	1952.34
337.29	672.329
341.354	332.261
345.416	292.476
349.476	299.38
353.534	276.23
357.591	152.776
361.645	183.281
365.698	497.481
369.748	1594.49
373.797	1604.17
377.844	523.314
381.889	49.413
385.932	9.604
389.973	69.32
394.012	336.037
398.049	1612.58
402.084	2655.98
406.118	1251.23
410.15	295.183
414.179	6.953
418.207	39.369
422.233	37.952
426.257	79.043
430.279	42.932
434.299	29.531
438.318	347.73
442.334	398.687
446.349	162.398
450.361	192.921
454.372	750.267
458.381	473.438
462.388	179.459
466.394	278.369
470.397	456.135
474.398	815.755
478.398	1312.22
482.396	1491.54
486.391	1235.72
490.385	1057.79
494.377	359.751
498.368	184.668
502.356	226.499
506.342	378.922
510.327	824.043
514.31	2698.71
518.291	5581.06
522.27	3253.69
526.247	987.764
530.222	437.844
534.196	206.829
538.167	263.93
542.137	286.221
546.105	394.742
550.071	729.637
554.035	1859.37
557.998	3679.56
561.958	3193.91
565.917	1556.84
569.874	776.642
573.829	374.636
577.782	313.158
581.733	298.92
585.683	168.238
589.63	200.017
593.576	14.596
597.52	47.996
601.462	40.532
605.402	158.313
609.341	230.914
613.277	148.364
617.212	256.812
621.145	216.607
625.076	214.061
629.006	284.795
632.933	428.361
636.859	619.843
640.783	1227.34
644.705	1082.68
648.625	547.221
652.543	304.839
656.46	330.261
660.375	242.858
664.288	39.526
668.199	177.237
672.108	137.998
676.016	181.819
679.921	255.708
683.825	392.654
687.727	376.65
691.628	133.698
695.526	144.799
699.423	69.959
703.318	37.271
707.211	25.465
711.102	32.156
714.992	9.384
718.879	1.89
722.765	33.631
726.649	7.196
730.532	58.789
734.412	28.396
738.291	21.211
742.168	22.685
746.043	82.685
749.916	76.214
753.788	47.105
757.658	476.526
761.526	89.267
765.392	23.032
769.257	12.878
773.119	60.851
776.98	88.9
780.839	49.004
784.697	21.186
788.552	27.475
792.406	11.914
796.258	98.484
800.108	47.241
803.957	35.828
807.804	77.266
811.649	52.449
815.492	88.756
819.333	27.166
823.173	14.663
827.011	130.239
830.847	188.936
834.681	109.721
838.514	286.611
842.345	410.604
846.174	519.712
850.001	771.805
853.827	921.066
857.651	981.398
861.473	770.105
865.293	638.224
869.112	609.191
872.928	587.662
876.744	539.391
880.557	625.125
884.369	817.769
888.178	806.419
891.987	1037.54
895.793	1310.3
899.598	1672.43
903.401	2108.7
907.202	2728.59
911.001	3985.96
914.799	6297.32
918.595	12018.6
922.389	13793.9
926.182	15504.4
929.972	15296.6
933.761	17548.3
937.549	17365.9
941.334	10230.6
945.118	5686.19
948.9	3771.36
952.681	2650.62
956.459	2027.84
960.236	1742.97
964.012	1690.72
967.785	1798.75
971.557	2183.43
975.327	3434.3
979.095	6534.77
982.862	11623.6
986.627	10537.9
990.39	5093.07
994.152	2442.46
997.912	1445.28
1001.67	1141.95
1005.43	730.584
1009.18	547.176
1012.93	458.735
1016.68	305.285
1020.43	247.801
1024.18	351.279
1027.93	278.721
1031.67	173.149
1035.42	306.532
1039.16	116.893
1042.9	116.443
1046.63	145.571
1050.37	261.064
1054.11	235.836
1057.84	101.167
1061.57	85.655
1065.3	154.083
1069.03	228.275
1072.75	142.1
1076.47	168.064
1080.2	178.855
1083.92	135.487
1087.64	4.79
1091.36	16.685
1095.07	14.457
1098.79	78.105
1102.5	94.544
1106.21	19.582
1109.92	101.857
1113.62	12.033
1117.33	62.575
1121.04	125.67
1124.74	316.646
1128.44	123.485
1132.14	83.146
1135.83	14.669
1139.53	112.025
1143.22	16.193
1146.92	126.189
1150.61	121.067
1154.3	377.959
1157.98	618.611
1161.67	1081.15
1165.35	1368.57
1169.04	966.884
1172.72	463.146
1176.4	355.232
1180.07	210.205
1183.75	177.066
1187.42	76.814
1191.1	139.448
1194.77	78.063
1198.44	145.068
1202.1	125.015
1205.77	149.848
1209.43	43.569
1213.1	27.171
1216.76	86.628
1220.42	92.214
1224.07	11.468
1227.73	108.598
1231.38	32.587
1235.04	223.814
1238.69	112.743
1242.34	196.398
1245.99	93.259
1249.63	180.595
1253.28	81.545
1256.92	29.816
1260.56	98.746
1264.2	137.825
1267.84	120.287
1271.48	143.293
1275.11	32.615
1278.74	58.412
1282.38	174.016
1286.01	167.23
1289.63	196.54
1293.26	109.927
1296.89	95.595
1300.51	76.23
1304.13	85.837
1307.75	83.422
1311.37	143.986
1314.99	3.467
1318.6	228.068
1322.22	159.599
1325.83	77.092
1329.44	149.091
1333.05	97.038
1336.66	82.519
1340.26	47.048
1343.87	120.601
1347.47	225.643
1351.07	130.163
1354.67	141.269
1358.27	302.589
1361.86	94.153
1365.46	163.342
1369.05	180.659
1372.64	200.561
1376.23	230.656
1379.82	107.598
1383.41	90.823
1386.99	277.87
1390.57	125.334
1394.16	183.976
1397.74	162.768
1401.32	152.59
1404.89	154.505
1408.47	113.57
1412.04	274.554
1415.61	311.714
1419.18	210.901
1422.75	244.028
1426.32	255.279
1429.89	234.566
1433.45	245.056
1437.01	341.016
1440.58	234.089
1444.13	399.284
1447.69	432.601
1451.25	327.119
1454.81	467.722
1458.36	527.556
1461.91	491.859
1465.46	471.429
1469.01	353.285
1472.56	422.476
1476.1	282.06
1479.64	228.098
1483.19	153.609
1486.73	224.66
1490.27	185.351
1493.81	206.801
1497.34	140.111
1500.88	15.54
1504.41	47.066
1507.94	10.251
1511.47	33.459
1515	80.867
1518.53	0.289
1522.05	71.392
