Measurement: Raman, 514 nm, ccw, Raman Data Processed
Mineral: Topaz
Rruff sample: R050200
Ideal chemistry: Al_2_SiO_4_F_2_
Locality: Jos Plateau, Nigeria
Source: Marcus Origlieri
Description: Colorless water-worn single crystal
Measured chemistry: Al_2.000_Si_1.000_O_4.000_F_1.488_(OH)_0.512_
Pin_id: L00463
Orientation: Laser parallel to -c* (0 0 -1). Fiducial mark perpendicular to laser is parallel to a [1 0 0]
Raman shift (cm-1)	intensity
95.465	0
99.644	32.487
103.82	32.354
107.995	104.035
112.168	395.215
116.339	496.693
120.508	721.368
124.675	21.629
128.84	8.931
133.003	20.874
137.164	24.844
141.323	2.522
145.48	59.784
149.635	518.889
153.788	1667.76
157.939	1397.27
162.088	225.34
166.235	82.882
170.38	77.84
174.523	85.169
178.664	46.819
182.803	23.532
186.94	27.468
191.076	35.656
195.209	53.371
199.34	100.623
203.47	128.211
207.597	267.963
211.722	39.8
215.846	57.719
219.967	83.72
224.087	184.803
228.204	680.966
232.32	2930.21
236.434	12361.5
240.545	30852.9
244.655	11284.4
248.763	2943.93
252.869	1641.55
256.973	1814.26
261.075	6560.73
265.175	25625.5
269.273	56707
273.369	12653.2
277.463	3731.44
281.556	5229.3
285.646	12828.7
289.734	8578.28
293.821	2636.71
297.905	1468.48
301.988	1167.2
306.069	975.52
310.147	857.631
314.224	817.665
318.299	849.574
322.372	1022.3
326.443	1555.23
330.512	3220.22
334.579	4095.27
338.645	1297.37
342.708	671.51
346.769	555.697
350.829	503.929
354.887	570.201
358.942	603.509
362.996	409.864
367.048	400.253
371.098	325.668
375.146	222.155
379.192	171.693
383.236	180.278
387.279	191.869
391.319	229.519
395.358	482.216
399.394	1152.99
403.429	2120.86
407.462	1211.82
411.493	354.794
415.522	200.773
419.549	86.734
423.575	59.688
427.598	68.671
431.619	22.337
435.639	22.581
439.657	11.485
443.673	10.598
447.687	1.202
451.699	13.15
455.709	37.754
459.717	5.374
463.724	2.816
467.728	50.876
471.731	27.825
475.732	58.723
479.731	49.576
483.728	129.388
487.723	269.157
491.716	528.883
495.708	356.561
499.697	287.191
503.685	360.774
507.671	658.628
511.655	1405.56
515.637	4064.1
519.617	10518.3
523.596	7913.53
527.572	2175.41
531.547	845.851
535.52	365.564
539.491	264.824
543.46	282.143
547.427	449.219
551.393	529.184
555.356	1145.67
559.318	2634.54
563.278	2785.94
567.236	1414.97
571.192	791.31
575.147	409.616
579.099	284.821
583.05	252.834
586.999	195.845
590.946	238.993
594.891	130.618
598.834	187.221
602.776	113.387
606.715	188.802
610.653	156.531
614.589	136.862
618.523	153.517
622.456	168.168
626.386	229.959
630.315	176.462
634.242	173.039
638.167	66.883
642.09	180.649
646.012	147.338
649.931	67.549
653.849	70.491
657.765	65.958
661.679	43.354
665.592	34.671
669.502	106.906
673.411	51.067
677.318	23.128
681.223	25.067
685.126	73.914
689.028	0.642
692.927	35.16
696.825	23.549
700.721	24.817
704.616	6.993
708.508	13.977
712.399	22.172
716.288	68.576
720.175	50.247
724.06	4.123
727.944	13.915
731.825	80.895
735.705	9.164
739.584	43.721
743.46	6.565
747.334	81.392
751.207	51.208
755.078	87.642
758.947	22.718
762.815	52.509
766.68	78.347
770.544	141.209
774.406	70.234
778.267	90.246
782.125	1.694
785.982	32.387
789.837	14.476
793.69	132.57
797.542	91.73
801.391	50.934
805.239	58.179
809.085	126.475
812.93	207.789
816.772	161.111
820.613	104.108
824.452	166.143
828.29	180.466
832.125	238.968
835.959	223.611
839.791	375.689
843.621	482.185
847.45	747.202
851.277	932.714
855.102	1237.23
858.925	1294.65
862.746	1017.67
866.566	797.096
870.384	778.112
874.2	796.661
878.015	798.312
881.828	928.199
885.639	1073.56
889.448	1294.46
893.256	1531.73
897.061	1994.43
900.865	2621.25
904.668	3388.72
908.468	4669.73
912.267	6419.82
916.064	9602.99
919.86	14985.3
923.653	21332.7
927.445	23590.2
931.236	19307.8
935.024	14873.5
938.811	11989.3
942.596	8104.24
946.379	5205.68
950.161	3616.4
953.94	2629.04
957.719	1980.45
961.495	1509.27
965.27	1262.82
969.043	1012.16
972.814	874.91
976.583	699.508
980.351	683.04
984.117	593.266
987.882	580.138
991.644	573.872
995.405	377.859
999.165	491.382
1002.92	738.003
1006.68	715.711
1010.43	949.518
1014.18	809.468
1017.93	497.519
1021.68	272.764
1025.43	279.167
1029.18	236.678
1032.92	180.272
1036.66	119.48
1040.4	119.217
1044.14	77.223
1047.88	123.66
1051.62	182.237
1055.35	114.43
1059.08	105.859
1062.81	102.015
1066.54	67.136
1070.27	105.296
1073.99	106.31
1077.72	84.29
1081.44	53.279
1085.16	37.738
1088.88	48.043
1092.59	34.283
1096.31	65.458
1100.02	37.129
1103.73	44.467
1107.44	12.414
1111.15	55.796
1114.86	26.59
1118.57	18.129
1122.27	17.749
1125.97	97.407
1129.67	124.268
1133.37	61.037
1137.07	5.632
1140.76	73.348
1144.45	40.059
1148.15	99.623
1151.84	142.095
1155.53	292.469
1159.21	490.889
1162.9	917.383
1166.58	1031.73
1170.26	669.888
1173.94	297.358
1177.62	151.413
1181.3	161.52
1184.97	55.877
1188.65	38.536
1192.32	22.378
1195.99	33.201
1199.66	34.987
1203.33	23.517
1206.99	127.751
1210.65	438.051
1214.32	429.878
1217.98	9.087
1221.64	12.771
1225.29	71.16
1228.95	63.515
1232.6	28.057
1236.26	30.46
1239.91	150.821
1243.56	87.497
1247.2	24.02
1250.85	29.397
1254.49	0.148
1258.13	30.504
1261.78	50.91
1265.41	78.771
1269.05	24.326
1272.69	47.558
1276.32	50.091
1279.95	30.053
1283.59	13.161
1287.21	51.508
1290.84	37.572
1294.47	94.119
1298.09	58.563
1301.72	58.388
1305.34	30.168
1308.96	65.326
1312.58	125.396
1316.19	13.378
1319.81	138.275
1323.42	105.092
1327.03	24.829
1330.64	6.07
1334.25	136.451
1337.86	95.365
1341.46	3.468
1345.07	22.11
1348.67	88.057
1352.27	20.037
1355.87	79.1
1359.46	113.188
1363.06	117.796
1366.65	92.095
1370.25	116.133
1373.84	170.366
1377.43	82.734
1381.02	10.406
1384.6	72.327
1388.18	121.228
1391.77	104.367
1395.35	88.747
1398.93	160.906
1402.51	106.687
1406.08	138.393
1409.66	68.889
1413.23	79.598
1416.8	181.278
1420.37	206.528
1423.94	157.646
1427.51	158.944
1431.08	126.473
1434.64	207.026
1438.2	188.721
1441.76	188.517
1445.32	252.075
1448.88	304.258
1452.43	293.014
1455.99	309.586
1459.54	384.452
1463.09	325.42
1466.64	256.39
1470.19	236.457
1473.74	263.441
1477.28	163.356
1480.83	242.47
1484.37	212.117
1487.91	71.019
1491.45	166.222
1494.98	213.706
1498.52	108.509
1502.05	8.253
1505.59	13.379
1509.12	0.785
1512.65	103.591
1516.17	104.18
1519.7	36.38
1523.23	83.125
1526.75	0
