Measurement: Raman, 514 nm, ccw, Raman Data Processed
Mineral: Topaz
Rruff sample: R050200
Ideal chemistry: Al_2_SiO_4_F_2_
Locality: Jos Plateau, Nigeria
Source: Marcus Origlieri
Description: Colorless water-worn single crystal
Measured chemistry: Al_2.000_Si_1.000_O_4.000_F_1.488_(OH)_0.512_
Pin_id: L00096
Orientation: Laser parallel to a* (1 0 0). Fiducial mark perpendicular to laser is parallel to b [0 1 0]
Raman shift (cm-1)	intensity
95.465	0
99.644	98.403
103.82	106.663
107.995	320.32
112.168	278.646
116.339	517.515
120.508	182.773
124.675	103.866
128.84	130.054
133.003	128.616
137.164	0.952
141.323	163.698
145.48	182.136
149.635	1196.82
153.788	2733.97
157.939	2748.35
162.088	3011.81
166.235	4263.68
170.38	1919.77
174.523	450.836
178.664	114.915
182.803	96.106
186.94	96.621
191.076	56.093
195.209	121.127
199.34	206.436
203.47	256.771
207.597	389.16
211.722	31.523
215.846	140.255
219.967	78.188
224.087	64.364
228.204	658.45
232.32	3981.35
236.434	16366.1
240.545	26954
244.655	10993.3
248.763	2971.77
252.869	1247.44
256.973	1520.35
261.075	6824.16
265.175	24771.8
269.273	35469.7
273.369	11023.8
277.463	6450.49
281.556	20073.3
285.646	41470.4
289.734	26385.2
293.821	7716.09
297.905	2636.46
301.988	1585.89
306.069	1238.34
310.147	1803.7
314.224	3999.11
318.299	5180.29
322.372	2286.65
326.443	4001.72
330.512	10333.9
334.579	10820.2
338.645	3242.57
342.708	1034.55
346.769	424.886
350.829	303.737
354.887	79.245
358.942	37.833
362.996	114.122
367.048	451.436
371.098	681.303
375.146	182.522
379.192	13.846
383.236	82.108
387.279	43.313
391.319	311.352
395.358	1757.31
399.394	5915.38
403.429	10521.6
407.462	6000.86
411.493	1916.35
415.522	566.12
419.549	444.173
423.575	594.501
427.598	309.003
431.619	34.426
435.639	21.805
439.657	39
443.673	185.952
447.687	975.022
451.699	4572.17
455.709	11845.4
459.717	10477.8
463.724	3805.35
467.728	1314.95
471.731	577.607
475.732	336.337
479.731	242.117
483.728	329.958
487.723	739.88
491.716	1281.88
495.708	644.964
499.697	265.119
503.685	357.374
507.671	765.321
511.655	1101.58
515.637	707.027
519.617	795.794
523.596	652.548
527.572	297.239
531.547	231.003
535.52	145.945
539.491	247.145
543.46	306.368
547.427	455.66
551.393	965.05
555.356	2263.45
559.318	4465.85
563.278	4117.44
567.236	1877.9
571.192	800.274
575.147	330.328
579.099	221.75
583.05	141.907
586.999	118.438
590.946	133.386
594.891	108.768
598.834	403.768
602.776	375.914
606.715	330.572
610.653	247.619
614.589	260.332
618.523	197.601
622.456	189.481
626.386	170.011
630.315	241.016
634.242	399.164
638.167	717.112
642.09	1382.82
646.012	1637.39
649.931	900.807
653.849	364.074
657.765	247.186
661.679	136.142
665.592	71.932
669.502	68.541
673.411	26.939
677.318	1.122
681.223	29.02
685.126	5.872
689.028	51.011
692.927	17.168
696.825	164.093
700.721	258.806
704.616	512.347
708.508	657.693
712.399	490.841
716.288	199.792
720.175	64.543
724.06	24.922
727.944	129.722
731.825	12.924
735.705	89.852
739.584	56.257
743.46	49.237
747.334	59.333
751.207	48.589
755.078	69.214
758.947	0.403
762.815	14.049
766.68	21.871
770.544	71.178
774.406	35.835
778.267	119.247
782.125	22.155
785.982	18.893
789.837	21.459
793.69	52.875
797.542	130.151
801.391	74.292
805.239	156.301
809.085	330.184
812.93	292.945
816.772	293.177
820.613	464.473
824.452	611.241
828.29	834.527
832.125	1119.29
835.959	1623.57
839.791	2746.26
843.621	4807.48
847.45	8257.25
851.277	11320
855.102	13479.8
858.925	12101.7
862.746	7613.48
866.566	4650.26
870.384	3112
874.2	2409.35
878.015	1980.89
881.828	1665.12
885.639	1636.93
889.448	1640.24
893.256	1689.38
897.061	1933.51
900.865	2249.72
904.668	2876.13
908.468	3867.79
912.267	5537.36
916.064	8328.94
919.86	12764.3
923.653	18550.1
927.445	21394.8
931.236	21749.7
935.024	26020.7
938.811	24847.4
942.596	14355.1
946.379	7668.17
950.161	4769.38
953.94	3302.77
957.719	2379.35
961.495	1907.12
965.27	1552.13
969.043	1295.74
972.814	1084.3
976.583	998.092
980.351	966.101
984.117	872.349
987.882	896.974
991.644	878.76
995.405	897.784
999.165	1169.65
1002.92	1873.16
1006.68	5042.86
1010.43	3890.78
1014.18	2201.91
1017.93	1110.25
1021.68	611.825
1025.43	508.622
1029.18	499.662
1032.92	384.04
1036.66	368.834
1040.4	401.068
1044.14	289.486
1047.88	237.335
1051.62	255.783
1055.35	302.793
1059.08	304.665
1062.81	217.861
1066.54	208.556
1070.27	133.732
1073.99	170.319
1077.72	154.945
1081.44	157.564
1085.16	133.811
1088.88	142.671
1092.59	65.687
1096.31	40.45
1100.02	39
1103.73	32.697
1107.44	64.402
1111.15	38.993
1114.86	64.883
1118.57	3.519
1122.27	215.97
1125.97	226.209
1129.67	114.661
1133.37	75.403
1137.07	66.669
1140.76	109.993
1144.45	8.048
1148.15	1.073
1151.84	46.665
1155.53	211.416
1159.21	314.401
1162.9	700.374
1166.58	929.936
1170.26	724.646
1173.94	409.674
1177.62	234.575
1181.3	145.549
1184.97	78.458
1188.65	92.42
1192.32	35.544
1195.99	52.437
1199.66	90.973
1203.33	36.517
1206.99	63.96
1210.65	40.325
1214.32	16.935
1217.98	17.391
1221.64	73.336
1225.29	17.04
1228.95	72.662
1232.6	58.132
1236.26	46.055
1239.91	84.887
1243.56	109.397
1247.2	8.724
1250.85	54.752
1254.49	5.46
1258.13	29.975
1261.78	58.954
1265.41	10.245
1269.05	133.355
1272.69	58.725
1276.32	109.823
1279.95	45.627
1283.59	6.933
1287.21	55.841
1290.84	170.283
1294.47	24.941
1298.09	139.845
1301.72	35.49
1305.34	121.862
1308.96	79.961
1312.58	68.779
1316.19	39.294
1319.81	63.521
1323.42	55.463
1327.03	99.061
1330.64	7.665
1334.25	50.506
1337.86	95.069
1341.46	66.629
1345.07	41.653
1348.67	94.328
1352.27	67.304
1355.87	124.087
1359.46	107.331
1363.06	165.635
1366.65	212.52
1370.25	231.151
1373.84	140.107
1377.43	185.316
1381.02	99.083
1384.6	191.62
1388.18	241.331
1391.77	163.858
1395.35	249.123
1398.93	195.249
1402.51	192.218
1406.08	208.944
1409.66	152.864
1413.23	117.628
1416.8	301.541
1420.37	270.562
1423.94	203.532
1427.51	295.658
1431.08	231.397
1434.64	619.933
1438.2	307.769
1441.76	336.623
1445.32	367.049
1448.88	275.63
1452.43	209.297
1455.99	369.704
1459.54	326.991
1463.09	382.972
1466.64	251.449
1470.19	236.347
1473.74	272.252
1477.28	220.711
1480.83	119.197
1484.37	222.854
1487.91	197.605
1491.45	76.682
1494.98	176.231
1498.52	112.776
1502.05	40.372
1505.59	11.094
1509.12	188.252
1512.65	160.178
1516.17	107.436
1519.7	0.376
