Measurement: Raman, 514 nm, ccw, Raman Data Processed
Mineral: Topaz
Rruff sample: R050176
Ideal chemistry: Al_2_SiO_4_F_2_
Locality: Jos Plateau, Nigeria
Source: Marcus Origlieri
Description: Colorless prismatic crystal
Measured chemistry: Al_2.000_Si_1.000_O_4.000_(F_1.438_(OH)_0.562_)
Pin_id: L00474
Orientation: Laser parallel to -b* (0 -1 0). Fiducial mark perpendicular to laser is parallel to c [0 0 1]
Raman shift (cm-1)	intensity
89.89	0
94.071	35.378
98.251	140.864
102.428	1341.59
106.604	478.487
110.777	11261.9
114.949	3872.28
119.119	496.043
123.286	238.753
127.452	147.116
131.615	80.062
135.777	137.331
139.937	217.157
144.094	159.829
148.25	284.625
152.403	1356.91
156.555	3612.76
160.705	413.563
164.853	197.139
168.998	151.783
173.142	40.542
177.284	11.793
181.424	39.968
185.562	19.79
189.698	182.245
193.831	36.214
197.963	8.48
202.093	8.834
206.221	42.836
210.347	66.588
214.472	59.506
218.594	57.019
222.714	97.681
226.832	354.027
230.948	1184.97
235.063	6680.11
239.175	31103
243.286	17179
247.394	3580.06
251.501	1490.28
255.605	1322.21
259.708	2238.77
263.808	11251.9
267.907	55147.9
272.004	14313.5
276.099	3591.16
280.192	5117.13
284.283	18071.4
288.372	20748.3
292.459	5108.19
296.544	2162.35
300.627	1534.06
304.709	1277.58
308.788	1135.01
312.865	927.898
316.941	949.042
321.015	949.632
325.086	1039.19
329.156	1724.18
333.224	3525.18
337.29	1410.97
341.354	867.059
345.416	709.88
349.476	616.895
353.534	604.926
357.591	640.402
361.645	494.293
365.698	637.655
369.748	1138.09
373.797	2062.96
377.844	1029.43
381.889	403.187
385.932	386.834
389.973	423.036
394.012	532.352
398.049	1018.66
402.084	3069.97
406.118	2573.27
410.15	877.554
414.179	391.819
418.207	224.354
422.233	245.84
426.257	148.419
430.279	111.468
434.299	111.625
438.318	308.592
442.334	511.859
446.349	178.474
450.361	219.755
454.372	611.087
458.381	1027.54
462.388	426.467
466.394	269.213
470.397	501.551
474.398	508.212
478.398	693.366
482.396	1370.81
486.391	988.13
490.385	1477.31
494.377	522.399
498.368	169.441
502.356	227.49
506.342	228.545
510.327	452.12
514.31	1317.77
518.291	4451.96
522.27	4741.06
526.247	1305.09
530.222	329.12
534.196	75.209
538.167	82.354
542.137	103.384
546.105	147.214
550.071	300.831
554.035	1107.29
557.998	3191.38
561.958	4258.82
565.917	1908.74
569.874	564.493
573.829	312.062
577.782	123.449
581.733	15.626
585.683	16.686
589.63	38.478
593.576	24.346
597.52	9.856
601.462	46.726
605.402	72.273
609.341	33.228
613.277	65.779
617.212	44
621.145	35.105
625.076	9.407
629.006	62.663
632.933	60.739
636.859	294.729
640.783	770.465
644.705	991.042
648.625	568.465
652.543	385.703
656.46	256.655
660.375	111.169
664.288	131.606
668.199	122.822
672.108	188.671
676.016	161.292
679.921	213.568
683.825	227.362
687.727	306.878
691.628	296.041
695.526	191.41
699.423	87.687
703.318	101.554
707.211	82.325
711.102	241.2
714.992	164.918
718.879	162.482
722.765	173.908
726.649	254.204
730.532	339.387
734.412	243.889
738.291	202.468
742.168	187.908
746.043	215.902
749.916	278.2
753.788	246.59
757.658	183.662
761.526	157.861
765.392	188.511
769.257	211.577
773.119	203.69
776.98	76.73
780.839	21.122
784.697	151.119
788.552	20.451
792.406	108.694
796.258	104.047
800.108	21.411
803.957	48.212
807.804	86.089
811.649	38.323
815.492	37.362
819.333	29.324
823.173	82.605
827.011	3.953
830.847	144.031
834.681	102.091
838.514	49.188
842.345	128.309
846.174	192.483
850.001	509.745
853.827	805.096
857.651	801.606
861.473	414.196
865.293	271.896
869.112	219.886
872.928	247.449
876.744	352.461
880.557	373.587
884.369	583.52
888.178	453.783
891.987	656.304
895.793	1018.35
899.598	1381.01
903.401	1853.21
907.202	2384.56
911.001	3431.65
914.799	5590.39
918.595	9084.01
922.389	13415.9
926.182	15957
929.972	15496.4
933.761	18331.1
937.549	19454.9
941.334	11325.8
945.118	6292.05
948.9	3965.43
952.681	2525.98
956.459	1769.37
960.236	1423.67
964.012	1275.87
967.785	1291.7
971.557	1549.92
975.327	2199.51
979.095	3921.72
982.862	7662.78
986.627	7393.99
990.39	3448.73
994.152	1588.8
997.912	853.82
1001.67	470.052
1005.43	253.496
1009.18	163.153
1012.93	273.021
1016.68	245.13
1020.43	194.515
1024.18	246.12
1027.93	144.94
1031.67	54.021
1035.42	112.185
1039.16	167.592
1042.9	195.209
1046.63	226.247
1050.37	122.906
1054.11	85.051
1057.84	43.867
1061.57	55.5
1065.3	263.055
1069.03	412.48
1072.75	232.415
1076.47	220.568
1080.2	94.892
1083.92	53.845
1087.64	195.728
1091.36	401.604
1095.07	381.687
1098.79	255.962
1102.5	178.433
1106.21	160.108
1109.92	84.842
1113.62	62.999
1117.33	323.643
1121.04	608.139
1124.74	519.833
1128.44	326.819
1132.14	34.968
1135.83	57.211
1139.53	242.103
1143.22	360.151
1146.92	519.752
1150.61	616.744
1154.3	562.863
1157.98	793.02
1161.67	1311.35
1165.35	1342.78
1169.04	1060.4
1172.72	838.188
1176.4	711.23
1180.07	554.557
1183.75	417.81
1187.42	169.747
1191.1	70.373
1194.77	41.59
1198.44	109.2
1202.1	308.832
1205.77	402.183
1209.43	408.709
1213.1	425.496
1216.76	258.54
1220.42	60.147
1224.07	42.383
1227.73	137.932
1231.38	307.758
1235.04	503.817
1238.69	394.097
1242.34	342.56
1245.99	188.226
1249.63	183.115
1253.28	36.99
1256.92	149.065
1260.56	284.394
1264.2	381.461
1267.84	454.687
1271.48	540.036
1275.11	366.764
1278.74	112.993
1282.38	16.647
1286.01	22.772
1289.63	15.946
1293.26	184.358
1296.89	527.676
1300.51	564.591
1304.13	507.513
1307.75	444.495
1311.37	320.798
1314.99	128.228
1318.6	128.218
1322.22	118.812
1325.83	238.896
1329.44	383.698
1333.05	487.791
