Measurement: Raman, 514 nm, ccw, Raman Data Processed
Mineral: Topaz
Rruff sample: R050176
Ideal chemistry: Al_2_SiO_4_F_2_
Locality: Jos Plateau, Nigeria
Source: Marcus Origlieri
Description: Colorless prismatic crystal
Measured chemistry: Al_2.000_Si_1.000_O_4.000_(F_1.438_(OH)_0.562_)
Pin_id: L00474
Orientation: Laser parallel to -b* (0 -1 0). Fiducial mark perpendicular to laser is parallel to c [0 0 1]
Raman shift (cm-1)	intensity
89.89	0
94.071	2.76
98.251	45.841
102.428	52.862
106.604	298.622
110.777	8347.37
114.949	1405.33
119.119	283.551
123.286	159.905
127.452	100.217
131.615	71.956
135.777	73.618
139.937	119.276
144.094	123.516
148.25	180.624
152.403	792.641
156.555	2503.16
160.705	272.789
164.853	20.485
168.998	45.216
173.142	88.987
177.284	16.002
181.424	17.598
185.562	0.883
189.698	2.691
193.831	11.219
197.963	44.709
202.093	21.425
206.221	4.55
210.347	20.643
214.472	63.131
218.594	123.694
222.714	156.99
226.832	285.943
230.948	1021.53
235.063	5289.87
239.175	23796.2
243.286	14854.4
247.394	3010.71
251.501	2216.98
255.605	1320.09
259.708	2194.66
263.808	11524.5
267.907	56788.8
272.004	15768.8
276.099	3144.76
280.192	2938.77
284.283	8599.21
288.372	10659.4
292.459	2966.92
296.544	1530.73
300.627	1210.01
304.709	1030.34
308.788	975.877
312.865	930.899
316.941	833.449
321.015	967.952
325.086	1118.45
329.156	2176.56
333.224	4471.52
337.29	1530.82
341.354	725.998
345.416	644.205
349.476	546.231
353.534	524.278
357.591	513.719
361.645	419.83
365.698	281.777
369.748	343.944
373.797	424.774
377.844	333.85
381.889	236.025
385.932	243.231
389.973	301.493
394.012	375.762
398.049	718.027
402.084	1809.37
406.118	1437.73
410.15	466.119
414.179	128.5
418.207	81.88
422.233	125.201
426.257	98.46
430.279	85.634
434.299	20.735
438.318	87.748
442.334	78.818
446.349	2.617
450.361	59.803
454.372	1.453
458.381	82.526
462.388	79.506
466.394	21.609
470.397	60.153
474.398	131.863
478.398	134.027
482.396	135.63
486.391	281.185
490.385	498.691
494.377	325.17
498.368	201.583
502.356	252.251
506.342	470.27
510.327	903.69
514.31	2402.33
518.291	7658.84
522.27	8185.19
526.247	2342.72
530.222	1013.12
534.196	348.49
538.167	231.326
542.137	219.891
546.105	254.487
550.071	398.116
554.035	673.823
557.998	1926.98
561.958	2773.47
565.917	1404.66
569.874	648.359
573.829	408.533
577.782	298.182
581.733	197.147
585.683	168.627
589.63	245.518
593.576	147.723
597.52	165.975
601.462	117.607
605.402	137.835
609.341	103.721
613.277	143.622
617.212	115.764
621.145	166.375
625.076	100.425
629.006	55.866
632.933	79.366
636.859	101.944
640.783	203.705
644.705	138.173
648.625	165.588
652.543	98.95
656.46	109.26
660.375	7.516
664.288	33.7
668.199	16.832
672.108	38.907
676.016	47.931
679.921	5.094
683.825	37.802
687.727	54.653
691.628	21.539
695.526	49.165
699.423	6.255
703.318	36.874
707.211	31.324
711.102	25.435
714.992	18.578
718.879	32.802
722.765	0.154
726.649	42.375
730.532	11.833
734.412	16.225
738.291	21.569
742.168	39.12
746.043	5.875
749.916	57.338
753.788	50.547
757.658	14.574
761.526	7.774
765.392	47.052
769.257	59.452
773.119	119.885
776.98	80.343
780.839	62.833
784.697	65.368
788.552	52.939
792.406	71.019
796.258	98.626
800.108	179.254
803.957	6.907
807.804	3.57
811.649	80.28
815.492	80.162
819.333	81.949
823.173	74.567
827.011	160.433
830.847	121.288
834.681	140.195
838.514	216.335
842.345	273.536
846.174	393.708
850.001	540.625
853.827	949.687
857.651	955.891
861.473	777.851
865.293	661.829
869.112	564.771
872.928	597.167
876.744	701.805
880.557	764.149
884.369	905.727
888.178	939.85
891.987	1183.61
895.793	1505.57
899.598	2020.19
903.401	2697.8
907.202	3558.81
911.001	4860.68
914.799	7548.73
918.595	12003.9
922.389	17400.2
926.182	19947.6
929.972	16378.2
933.761	12542.9
937.549	10213.9
941.334	6964.09
945.118	4612.12
948.9	3207.04
952.681	2216.32
956.459	1719.72
960.236	1346.25
964.012	1161.91
967.785	993.829
971.557	989.928
975.327	1064.98
979.095	1455.17
982.862	2316.93
986.627	2394.35
990.39	1375.57
994.152	783.646
997.912	488.454
1001.67	411.407
1005.43	282.541
1009.18	252.899
1012.93	296.421
1016.68	212.089
1020.43	226.96
1024.18	162.015
1027.93	175.229
1031.67	59.604
1035.42	103.112
1039.16	79.742
1042.9	135.509
1046.63	152.389
1050.37	58.565
1054.11	6.045
1057.84	38.544
1061.57	76.717
1065.3	140.021
1069.03	103.172
1072.75	157.902
1076.47	70.746
1080.2	25.858
1083.92	62.152
1087.64	73.889
1091.36	90.971
1095.07	209.122
1098.79	177.812
1102.5	78.223
1106.21	30.683
1109.92	68.651
1113.62	81.582
1117.33	99.127
1121.04	116.922
1124.74	198.638
1128.44	85.264
1132.14	48.85
1135.83	38.534
1139.53	0.117
1143.22	174.928
1146.92	176.363
1150.61	266.171
1154.3	426.087
1157.98	652.954
1161.67	1033.86
1165.35	1092.93
1169.04	626.943
1172.72	424.957
1176.4	334.953
1180.07	269.905
1183.75	136.904
1187.42	80.273
1191.1	22.954
1194.77	66.208
1198.44	19.235
1202.1	62.95
1205.77	234.166
1209.43	193.472
1213.1	193.253
1216.76	111.394
1220.42	52.931
1224.07	13.559
1227.73	63.456
1231.38	97.9
1235.04	239.296
1238.69	264.415
1242.34	149.337
1245.99	143.908
1249.63	72.53
1253.28	10.209
1256.92	21.952
1260.56	88.793
1264.2	132.744
1267.84	226.343
1271.48	251.437
1275.11	214.717
1278.74	80.364
1282.38	106.866
1286.01	12.774
1289.63	2.036
1293.26	93.468
1296.89	243.57
1300.51	309.964
1304.13	214.22
1307.75	470.305
1311.37	153.278
1314.99	65.648
1318.6	45.424
1322.22	70.449
1325.83	81.24
1329.44	183.001
1333.05	305.862
1336.66	236.269
