Measurement: Raman, 514 nm, ccw, Raman Data Processed
Mineral: Topaz
Rruff sample: R050200
Ideal chemistry: Al_2_SiO_4_F_2_
Locality: Jos Plateau, Nigeria
Source: Marcus Origlieri
Description: Colorless water-worn single crystal
Measured chemistry: Al_2.000_Si_1.000_O_4.000_F_1.488_(OH)_0.512_
Pin_id: L00468
Orientation: Laser parallel to b* (0 1 0). Fiducial mark perpendicular to laser is parallel to c [0 0 1]
Raman shift (cm-1)	intensity
107.995	0
112.168	112.844
116.339	233.051
120.508	37.211
124.675	101.288
128.84	30.057
133.003	46.153
137.164	81.795
141.323	45.961
145.48	368.744
149.635	2608.86
153.788	4132.44
157.939	1138.48
162.088	227.851
166.235	56.452
170.38	62.226
174.523	90.45
178.664	44.149
182.803	11.718
186.94	44.7
191.076	168.634
195.209	247.495
199.34	278.425
203.47	405.266
207.597	675.941
211.722	206.509
215.846	115.999
219.967	258.42
224.087	665.772
228.204	1953.91
232.32	11057.6
236.434	36081.1
240.545	30055.1
244.655	7233.95
248.763	2197.78
252.869	1557.45
256.973	2545.13
261.075	14397.8
265.175	43220.5
269.273	24314.6
273.369	6485.63
277.463	9103.97
281.556	30041.8
285.646	38869.1
289.734	11899.5
293.821	3374.56
297.905	1454.54
301.988	841.476
306.069	568.579
310.147	363.493
314.224	329.321
318.299	227.207
322.372	354.099
326.443	740.008
330.512	1745.86
334.579	999.602
338.645	419.319
342.708	197.197
346.769	148.494
350.829	89.213
354.887	39.135
358.942	21.018
362.996	75.863
367.048	61.662
371.098	184.424
375.146	91.168
379.192	46.017
383.236	32.782
387.279	153.614
391.319	295.526
395.358	1182.5
399.394	3787.49
403.429	4829.5
407.462	1800.57
411.493	685.609
415.522	345.662
419.549	91.719
423.575	24.198
427.598	56.162
431.619	7.759
435.639	53.631
439.657	16.717
443.673	28.949
447.687	202.184
451.699	1023.38
455.709	2039.56
459.717	1043.75
463.724	378.927
467.728	168.086
471.731	133.217
475.732	49.32
479.731	238.395
483.728	646.439
487.723	1662.45
491.716	1270.44
495.708	262.392
499.697	163.316
503.685	68.244
507.671	69.175
511.655	122.837
515.637	524.426
519.617	843.778
523.596	587.333
527.572	201.887
531.547	274.279
535.52	284.149
539.491	318.877
543.46	515.737
547.427	880.176
551.393	1794.15
555.356	4428.32
559.318	7167.77
563.278	4709.92
567.236	2018.26
571.192	946.389
575.147	561.615
579.099	285.719
583.05	303.77
586.999	215.549
590.946	201.647
594.891	124.018
598.834	102.934
602.776	215.097
606.715	252.68
610.653	368.43
614.589	203.209
618.523	157.635
622.456	183.476
626.386	304.04
630.315	187.556
634.242	373.011
638.167	954.438
642.09	1643.82
646.012	1334.16
649.931	754.455
653.849	437.71
657.765	156.924
661.679	131.1
665.592	156.945
669.502	70.012
673.411	35.081
677.318	120.14
681.223	102.175
685.126	123.207
689.028	15.213
692.927	25.184
696.825	108.958
700.721	136.568
704.616	98.853
708.508	0.408
712.399	121.422
716.288	44.499
720.175	29.261
724.06	9.91
727.944	113.525
731.825	88.093
735.705	14.566
739.584	80.997
743.46	19.541
747.334	11.943
751.207	25.56
755.078	69.24
758.947	71.904
762.815	10.51
766.68	15.878
770.544	50.701
774.406	113.248
778.267	82.809
782.125	151.387
785.982	72.983
789.837	159.61
793.69	184.266
797.542	142.948
801.391	113.663
805.239	55.407
809.085	57.547
812.93	73.081
816.772	124.023
820.613	310.009
824.452	207.033
828.29	173.099
832.125	251.207
835.959	267.366
839.791	379.656
843.621	573.877
847.45	652.344
851.277	973.218
855.102	921.331
858.925	921.07
862.746	714.69
866.566	601.262
870.384	513.434
874.2	449.668
878.015	448.728
881.828	537.06
885.639	572.33
889.448	688.754
893.256	699.206
897.061	831.467
900.865	1054.6
904.668	1384.58
908.468	1740.13
912.267	2401.46
916.064	3722.57
919.86	5359.14
923.653	7428.16
927.445	9960.64
931.236	16202.3
935.024	27977
938.811	24451.8
942.596	12037.8
946.379	5988.85
950.161	3554.45
953.94	2308.72
957.719	1809.11
961.495	1530.66
965.27	1295.51
969.043	1185.19
972.814	1082.97
976.583	1590.85
980.351	2334.86
984.117	3563.96
987.882	2379.41
991.644	1278.67
995.405	749.982
999.165	632.572
1002.92	541.294
1006.68	417.253
1010.43	330.189
1014.18	342.341
1017.93	322.623
1021.68	299.1
1025.43	351.754
1029.18	202.493
1032.92	153.078
1036.66	164.975
1040.4	266.997
1044.14	225.103
1047.88	145.337
1051.62	85.632
1055.35	171.688
1059.08	102.692
1062.81	142.961
1066.54	115.81
1070.27	49.562
1073.99	24.249
1077.72	50.651
1081.44	156.412
1085.16	76.933
1088.88	33.635
1092.59	10.168
1096.31	133.989
1100.02	59.815
1103.73	8.655
1107.44	24.399
1111.15	98.793
1114.86	29.768
1118.57	58.669
1122.27	243.441
1125.97	110.458
1129.67	4.95
1133.37	12.349
1137.07	17.201
1140.76	13.107
1144.45	33.57
1148.15	12.468
1151.84	33.427
1155.53	92.255
1159.21	198.683
1162.9	422.72
1166.58	484.092
1170.26	265.151
1173.94	79.301
1177.62	141.058
1181.3	93.966
1184.97	43.635
1188.65	98.257
1192.32	72.855
1195.99	65.974
1199.66	26.525
1203.33	108.593
1206.99	4.747
1210.65	5.615
1214.32	51.458
1217.98	84.272
1221.64	66.016
1225.29	88.612
1228.95	14.999
1232.6	31.556
1236.26	125.845
1239.91	99.363
1243.56	133.781
1247.2	122.329
1250.85	71.78
1254.49	67.046
1258.13	0.944
1261.78	44.549
1265.41	60.943
1269.05	160.203
1272.69	208.376
1276.32	118.398
1279.95	189.816
1283.59	50.847
1287.21	55.938
1290.84	30.888
1294.47	80.356
1298.09	168.665
1301.72	81.647
1305.34	70.73
1308.96	78.723
1312.58	8.601
1316.19	74.368
1319.81	106.044
1323.42	93.166
1327.03	82.382
1330.64	93.837
1334.25	21.153
1337.86	9.379
1341.46	82.497
1345.07	96.847
1348.67	221.909
1352.27	183.022
1355.87	178.854
1359.46	186.385
1363.06	32.468
1366.65	72.682
1370.25	105.254
1373.84	16.401
1377.43	251.593
1381.02	63.372
1384.6	193.908
1388.18	101.251
1391.77	189.653
1395.35	161.549
1398.93	102.921
1402.51	128.729
1406.08	208.181
1409.66	212.155
1413.23	318.049
1416.8	227.591
1420.37	245.821
1423.94	228.741
1427.51	263.613
1431.08	210.419
1434.64	283.995
1438.2	329.534
1441.76	358.927
1445.32	417.37
1448.88	316.289
1452.43	428.597
1455.99	346.104
1459.54	363.46
1463.09	158.803
1466.64	152.1
1470.19	208.41
1473.74	87.955
1477.28	213.673
1480.83	152.133
1484.37	209.739
1487.91	148.571
1491.45	90.678
1494.98	196.162
1498.52	25.173
1502.05	42.842
1505.59	79.213
1509.12	70.536
1512.65	54.421
1516.17	35.771
1519.7	102.369
