Measurement: Raman, 514 nm, ccw, Raman Data Processed
Mineral: Topaz
Rruff sample: R040121
Ideal chemistry: Al_2_SiO_4_F_2_
Locality: Tepetate, San Luis Potosi, Mexico
Source: University of Arizona Mineral Museum
Description: Fragments of a prismatic single crystal
Measured chemistry: Al_2.00_(Si_0.99_Al_0.02_)(F_0.82_(OH)_0.18_)_2_
Pin_id: L00473
Orientation: Laser parallel to a* (1 0 0). Fiducial mark perpendicular to laser is parallel to b [0 1 0]
Raman shift (cm-1)	intensity
94.768	0
98.947	18.381
103.124	59.551
107.3	231.666
111.473	428.404
115.644	1804.94
119.813	2831.17
123.981	431.945
128.146	170.771
132.309	188.739
136.47	73.138
140.63	178.658
144.787	221.653
148.942	657.308
153.096	2132.58
157.247	1006.75
161.396	452.307
165.544	243.466
169.689	71.002
173.833	65.48
177.974	29.027
182.114	1.211
186.251	14.134
190.387	44.614
194.52	116.521
198.652	22.586
202.782	69.252
206.909	85.963
211.035	6.941
215.159	6.947
219.281	70.749
223.4	111.183
227.518	376.142
231.634	1694.57
235.748	7027.87
239.86	17027.9
243.97	4324.02
248.079	1321.33
252.185	880.771
256.289	1274.34
260.391	5502.89
264.492	20768.3
268.59	28994.5
272.687	6292.25
276.781	4441.5
280.874	15231.2
284.964	46006.2
289.053	19493.6
293.14	4862.42
297.225	1562.71
301.308	886.962
305.389	742.724
309.468	631.358
313.545	899.348
317.62	1106.18
321.693	1561.63
325.765	6101.98
329.834	21853.4
333.902	21887
337.967	4447.79
342.031	1171.11
346.093	573.55
350.153	364.899
354.21	209.699
358.267	157.818
362.321	92.827
366.373	30.605
370.423	122.253
374.471	114.433
378.518	30.263
382.563	88.143
386.605	272.369
390.646	460.656
394.685	1835.56
398.722	8669.55
402.757	25676.7
406.79	8598.86
410.821	2425.18
414.851	893.522
418.878	532.874
422.904	325.319
426.927	310.65
430.949	189.833
434.969	320.939
438.987	282.987
443.003	557.91
447.018	1765.78
451.03	8549.57
455.041	32719.3
459.049	17247.9
463.056	3843.5
467.061	1218.02
471.064	518.49
475.065	289.921
479.064	237.313
483.062	172.672
487.057	266.996
491.051	627.28
495.043	214.539
499.032	94.816
503.02	47.906
507.007	26.322
510.991	224.102
514.973	12.213
518.954	12.894
522.933	74.524
526.91	45.647
530.885	23.024
534.858	15.122
538.829	35.59
542.799	11.318
546.766	35.769
550.732	203.958
554.696	544.617
558.658	1479.34
562.618	2010.78
566.576	886.054
570.533	424.549
574.488	193.662
578.44	126.451
582.391	251.533
586.341	207.284
590.288	207.938
594.233	209.439
598.177	280.723
602.119	324.371
606.059	264.356
609.997	224.206
613.933	399.917
617.868	456.492
621.801	727.93
625.731	825.232
629.66	546.399
633.588	569.433
637.513	685.333
641.437	1732.1
645.358	2246.74
649.278	1206.25
653.196	822.631
657.113	361.884
661.027	249.896
664.94	14.726
668.851	47.001
672.76	34.072
676.667	31.266
680.572	1.741
684.476	45.247
688.378	51.48
692.278	281.914
696.176	72.311
700.072	50.589
703.967	13.933
707.86	76.745
711.751	160.514
715.64	139.407
719.527	64.246
723.413	34.254
727.297	116.692
731.179	58.222
735.059	13.331
738.937	29.336
742.814	60.287
746.689	48.76
750.562	114.092
754.433	150.886
758.303	58.329
762.17	186.365
766.036	240.053
769.901	145.737
773.763	21.428
777.624	289.123
781.482	123.831
785.339	217.559
789.195	190.311
793.048	268.091
796.9	481.902
800.75	432.754
804.598	254.65
808.445	489.593
812.289	560.589
816.132	641.652
819.973	879.773
823.813	1076.31
827.65	1308.02
831.486	1718.64
835.32	2387.46
839.152	3246.74
842.983	5083.21
846.812	9186.47
850.639	17463.5
854.464	28407.4
858.288	26362.2
862.11	15447
865.93	8326.41
869.748	4971.05
873.564	3585.47
877.379	2837.77
881.192	2418.43
885.004	2228.31
888.813	2113.57
892.621	2236.62
896.427	2432.09
900.232	2817.75
904.034	3407.86
907.835	4420.25
911.634	6045.41
915.432	8932.37
919.227	14093.5
923.021	21678.9
926.813	27437.6
930.604	26165.4
934.393	20844.4
938.18	15692.7
941.965	9130.21
945.749	5711.92
949.53	3850.84
953.311	2669.97
957.089	2108.32
960.866	1408.88
964.641	1270.65
968.414	999.636
972.185	1002
975.955	748.455
979.723	628.18
983.49	425.182
987.254	448.327
991.017	486.573
994.779	580.506
998.538	531.323
1002.3	1410.02
1006.05	1053.45
1009.81	1263.99
1013.56	919.477
1017.31	705.253
1021.06	605.484
1024.81	395.542
1028.55	514.83
1032.3	325.125
1036.04	200.32
1039.78	294.619
1043.52	309.714
1047.26	181.964
1050.99	240.261
1054.73	182.411
1058.46	365.044
1062.19	286.081
1065.92	219.224
1069.65	260.118
1073.37	397.741
1077.1	173.919
1080.82	430.708
1084.54	499.716
1088.26	409.715
1091.97	188.24
1095.69	67.631
1099.4	258.997
1103.12	115.572
1106.83	131.887
1110.54	128.139
1114.24	138.738
1117.95	112.838
1121.65	216.855
1125.35	54.787
1129.06	89.622
1132.75	14.353
1136.45	135.091
1140.15	41.061
1143.84	105.607
1147.53	45.679
1151.22	24.481
1154.91	37.962
1158.6	25.966
1162.28	81.782
1165.97	67.607
1169.65	152.68
1173.33	136.581
1177.01	23.9
1180.69	61.356
1184.36	71.691
1188.04	32.26
1191.71	145.284
1195.38	64.533
1199.05	81.234
1202.71	82.804
1206.38	159.789
1210.04	128.892
1213.71	143.629
1217.37	201.697
1221.03	147.96
1224.68	323.476
1228.34	350.531
1231.99	215.541
1235.65	253.175
1239.3	378.587
1242.95	399.629
1246.59	365.058
1250.24	368.837
1253.88	347.125
1257.53	444.357
1261.17	417.863
1264.81	342.996
1268.45	555.974
1272.08	490.407
1275.72	614.182
1279.35	514.694
1282.98	413.372
1286.61	261.574
1290.24	443.928
1293.87	345.91
1297.49	395.978
1301.11	387.65
1304.73	353.324
1308.36	343.59
1311.97	404.546
1315.59	610.128
1319.2	353.514
1322.82	379.618
1326.43	420.108
1330.04	162.953
1333.65	130.151
1337.26	183.861
1340.86	121.809
1344.47	114.513
1348.07	279.021
1351.67	80.712
1355.27	33.127
1358.87	145.062
1362.46	98.977
1366.06	194.883
1369.65	187.038
1373.24	216.078
1376.83	317.215
1380.42	305.502
1384	394.646
1387.59	484.703
1391.17	210.459
1394.75	125.58
1398.33	171.055
1401.91	150.604
1405.49	218.33
1409.06	216.992
1412.64	35.889
1416.21	118.725
1419.78	1.689
1423.35	74.615
1426.91	31.523
