Measurement: Raman, 514 nm, ccw, Raman Data Processed
Mineral: Topaz
Rruff sample: R040121
Ideal chemistry: Al_2_SiO_4_F_2_
Locality: Tepetate, San Luis Potosi, Mexico
Source: University of Arizona Mineral Museum
Description: Fragments of a prismatic single crystal
Measured chemistry: Al_2.00_(Si_0.99_Al_0.02_)(F_0.82_(OH)_0.18_)_2_
Pin_id: L00170
Orientation: Laser parallel to -c* (0 0 -1). Fiducial mark perpendicular to laser is parallel to a [1 0 0]
Raman shift (cm-1)	intensity
94.768	0
98.947	142.024
103.124	140.896
107.3	149.796
111.473	259.439
115.644	775.832
119.813	912.297
123.981	174.693
128.146	46.576
132.309	72.283
136.47	168.334
140.63	170.523
144.787	452.444
148.942	1099.77
153.096	2732.83
157.247	1153.09
161.396	410.28
165.544	285.803
169.689	131.807
173.833	112.838
177.974	44.25
182.114	13.672
186.251	41.557
190.387	42.169
194.52	30.131
198.652	39.696
202.782	30.867
206.909	9.453
211.035	59.176
215.159	65.617
219.281	162.589
223.4	467.414
227.518	1579.8
231.634	7301.98
235.748	22654.9
239.86	29090.4
243.97	6894.8
248.079	2104.46
252.185	1330.08
256.289	2179.67
260.391	9655.3
264.492	34328.7
268.59	36165.9
272.687	9209.21
276.781	6742.74
280.874	10861
284.964	27117.7
289.053	10292.4
293.14	2841.13
297.225	1125.75
301.308	807.426
305.389	699.44
309.468	571.257
313.545	762.092
317.62	706.745
321.693	1033.51
325.765	3420.84
329.834	11443.1
333.902	9632.46
337.967	2411.26
342.031	981.913
346.093	679.509
350.153	888.093
354.21	2393.16
358.267	6018.53
362.321	1262.51
366.373	328.347
370.423	147.743
374.471	178.223
378.518	558.05
382.563	864.587
386.605	483.142
390.646	424.854
394.685	1063.79
398.722	4561.85
402.757	11596.1
406.79	3684.48
410.821	973.959
414.851	475.405
418.878	119.756
422.904	38.857
426.927	10.081
430.949	60.372
434.969	46.246
438.987	8.33
443.003	142.24
447.018	718.63
451.03	3794.59
455.041	13446.2
459.049	6089.57
463.056	1487.7
467.061	533.938
471.064	318.325
475.065	256.932
479.064	203.621
483.062	135.763
487.057	425.728
491.051	1033.63
495.043	1384.51
499.032	653.404
503.02	433.336
507.007	494.011
510.991	976.915
514.973	2893.32
518.954	7465.81
522.933	4835.32
526.91	1563.89
530.885	696.953
534.858	460.174
538.829	513.904
542.799	1473.82
546.766	4000.45
550.732	1805.7
554.696	1333
558.658	2606.83
562.618	3163.32
566.576	1483.44
570.533	879.824
574.488	597.435
578.44	565.5
582.391	735.177
586.341	800.995
590.288	574.83
594.233	489.544
598.177	499.368
602.119	456.232
606.059	481.9
609.997	502.311
613.933	720.388
617.868	1006.21
621.801	1375.78
625.731	1415.1
629.66	1176.18
633.588	1137.49
637.513	1159.14
641.437	1489.31
645.358	1596.99
649.278	1227.85
653.196	909.475
657.113	592.846
661.027	245.969
664.94	107.832
668.851	125.406
672.76	91.675
676.667	87.614
680.572	31.182
684.476	22.674
688.378	26.079
692.278	61.024
696.176	22.471
700.072	39.575
703.967	27.23
707.86	69.488
711.751	72.461
715.64	151.31
719.527	111.017
723.413	63.421
727.297	75.688
731.179	183.545
735.059	37.208
738.937	57.707
742.814	6.958
746.689	59.228
750.562	33.306
754.433	69.231
758.303	53.049
762.17	112.415
766.036	121.712
769.901	137.873
773.763	133.902
777.624	126.81
781.482	169.654
785.339	156.279
789.195	174.859
793.048	300.357
796.9	399.784
800.75	394.141
804.598	325.42
808.445	328.63
812.289	392.777
816.132	516.803
819.973	617.651
823.813	715.026
827.65	952.871
831.486	1306.92
835.32	1597.83
839.152	2111.51
842.983	3124.98
846.812	5316.62
850.639	9510.57
854.464	14540.3
858.288	13074.8
862.11	8168.74
865.93	4983.47
869.748	4011.77
873.564	2696.75
877.379	2448.43
881.192	2318.35
885.004	2345.41
888.813	2642.4
892.621	3144.6
896.427	3971.39
900.232	5166.72
904.034	6735.57
907.835	8507.6
911.634	10281.1
915.432	12985.3
919.227	18663.7
923.021	27118.3
926.813	33372.1
930.604	29979.1
934.393	22196.4
938.18	16725.8
941.965	11011.6
945.749	7342.49
949.53	5138.66
953.311	3722.06
957.089	2933.7
960.866	2342.57
964.641	1881.68
968.414	1659.03
972.185	1259.64
975.955	983.503
979.723	854.639
983.49	831.064
987.254	1094.79
991.017	877.491
994.779	940.749
998.538	1462.12
1002.3	3113.53
1006.05	3365.07
1009.81	5043.78
1013.56	4525.13
1017.31	2828.94
1021.06	2181.27
1024.81	1498.06
1028.55	924.39
1032.3	635.656
1036.04	440.262
1039.78	415.032
1043.52	340.015
1047.26	274.645
1050.99	303.349
1054.73	135.812
1058.46	137.463
1062.19	154.484
1065.92	223.122
1069.65	248.312
1073.37	401.683
1077.1	534.377
1080.82	911.346
1084.54	949.096
1088.26	669.935
1091.97	322.864
1095.69	165.88
1099.4	108.979
1103.12	38.153
1106.83	284.396
1110.54	331.7
1114.24	206.06
1117.95	154.469
1121.65	452.915
1125.35	299.393
1129.06	215.892
1132.75	83.408
1136.45	6.067
1140.15	124.625
1143.84	155.894
1147.53	178.146
1151.22	131.033
1154.91	97.235
1158.6	76.331
1162.28	118.866
1165.97	105.394
1169.65	220.937
1173.33	331.063
1177.01	250.177
1180.69	109.201
1184.36	96.144
1188.04	191.003
1191.71	149.771
1195.38	7.102
1199.05	159.894
1202.71	189.246
1206.38	61.557
1210.04	18.105
1213.71	157.558
1217.37	263.897
1221.03	133.65
1224.68	86.857
1228.34	128.497
1231.99	309.727
1235.65	525.863
1239.3	661.905
1242.95	642.816
1246.59	639.616
1250.24	868.217
1253.88	667.46
1257.53	612.202
1261.17	592.276
1264.81	760.511
1268.45	1043.46
1272.08	1143.2
1275.72	1258.59
1279.35	1012.77
1282.98	841.416
1286.61	743.771
1290.24	680.69
1293.87	829.686
1297.49	886.72
1301.11	729.52
1304.73	620.079
1308.36	749.39
1311.97	1117.8
1315.59	971.47
1319.2	1017
1322.82	1070.16
1326.43	740.506
1330.04	438.092
1333.65	201.708
1337.26	89.422
1340.86	83.476
1344.47	128.575
1348.07	97.13
1351.67	53.131
1355.27	10.451
1358.87	19.556
1362.46	51.609
1366.06	64.358
1369.65	118.81
1373.24	237.568
1376.83	259.942
1380.42	353.391
1384	431.721
1387.59	312.971
1391.17	198.254
1394.75	117.711
1398.33	108.303
1401.91	0.013
1405.49	154.058
1409.06	194.57
1412.64	17.703
1416.21	87.096
1419.78	29.955
1423.35	1.271
1426.91	0
