Measurement: Raman, 514 nm, ccw, Raman Data Processed
Mineral: Topaz
Rruff sample: R040121
Ideal chemistry: Al_2_SiO_4_F_2_
Locality: Tepetate, San Luis Potosi, Mexico
Source: University of Arizona Mineral Museum
Description: Fragments of a prismatic single crystal
Measured chemistry: Al_2.00_(Si_0.99_Al_0.02_)(F_0.82_(OH)_0.18_)_2_
Pin_id: L00170
Orientation: Laser parallel to -c* (0 0 -1). Fiducial mark perpendicular to laser is parallel to a [1 0 0]
Raman shift (cm-1)	intensity
93.375	0
97.554	66.154
101.732	62.119
105.908	219.189
110.082	223.246
114.254	732.03
118.424	1156.26
122.592	361.693
126.758	55.319
130.922	41.614
135.083	149.544
139.243	275.458
143.401	391.829
147.557	841.694
151.711	1948.09
155.863	2154.93
160.013	607.191
164.161	293.231
168.308	108.582
172.452	129.223
176.594	18.327
180.734	2.677
184.872	43.543
189.008	31.617
193.143	60.954
197.275	13.619
201.405	50.913
205.534	76.571
209.66	41.551
213.784	32.467
217.907	85.88
222.027	165.743
226.146	432.518
230.263	1683.55
234.377	7316.24
238.49	19948
242.601	8314.59
246.709	2220.55
250.816	1234.59
254.921	1528.75
259.024	4650.88
263.125	19203.2
267.224	45503.6
271.321	11565
275.416	5480.81
279.51	14166.8
283.601	42328.1
287.69	37461.1
291.778	8718.54
295.863	2709.43
299.947	1490.55
304.029	1125.89
308.108	1018.32
312.186	1059.08
316.262	1187.58
320.336	1678.88
324.408	5102.45
328.478	19104.4
332.546	35722
336.612	8445.32
340.677	2251.97
344.739	1054.54
348.799	638.411
352.858	555.727
356.915	594.01
360.969	356.224
365.022	144.052
369.073	24.139
373.122	16.271
377.169	50.585
381.215	85.871
385.258	221.913
389.299	596.494
393.339	1551.29
397.376	7495.48
401.412	25172
405.446	15841.7
409.478	4012.74
413.508	1319.86
417.536	615.978
421.562	288.992
425.586	132.391
429.609	123.13
433.629	114.26
437.648	200.847
441.665	459.971
445.68	1492.7
449.693	7259.08
453.704	28265.2
457.713	32235.1
461.721	7218.9
465.726	2070.57
469.73	928.147
473.731	479.643
477.731	344.013
481.729	172.258
485.725	275.396
489.72	645.488
493.712	518.601
497.703	82.767
501.691	0.007
505.678	26.728
509.663	13.774
513.646	60.677
517.627	123.797
521.607	140.459
525.584	76.454
529.56	97.101
533.534	126.092
537.506	117.449
541.476	205.079
545.444	414.87
549.41	498.073
553.375	674.359
557.337	1612.2
561.298	2416.39
565.257	1649.04
569.214	834.059
573.17	589.654
577.123	381.797
581.075	415.654
585.024	600.492
588.972	622.427
592.918	635.189
596.863	715.389
600.805	836.894
604.746	760.141
608.685	728.137
612.621	807.88
616.557	1267.38
620.49	1839.62
624.421	2735.62
628.351	2287.36
632.279	1469.87
636.205	1605.12
640.129	2547.12
644.051	3746.64
647.972	2881.16
651.89	2073.43
655.807	1367.14
659.722	702.397
663.636	328.967
667.547	198.757
671.457	170.682
675.365	108.126
679.271	21.433
683.175	1.026
687.077	82.585
690.978	83.955
694.877	146.785
698.774	36.971
702.669	52.732
706.562	25.057
710.454	99.904
714.344	168.817
718.232	119.187
722.118	43.693
726.002	38.2
729.885	231.747
733.766	142.1
737.645	119.285
741.522	95.314
745.397	194.206
749.271	164.97
753.143	183.613
757.013	167.13
760.881	195.53
764.748	240.819
768.613	361.007
772.476	342.103
776.337	393.112
780.196	440.043
784.054	450.905
787.91	475.177
791.764	603.45
795.616	816.149
799.467	731.813
803.316	908.447
807.163	888.059
811.008	1040.66
814.851	1232.27
818.693	1352.91
822.533	1720.33
826.371	2020.63
830.208	2639.86
834.042	3269.76
837.875	4228.22
841.706	6178.06
845.536	10516.6
849.363	18882.3
853.189	32334.3
857.013	35565.1
860.836	23853.9
864.656	13288.2
868.475	7989.32
872.292	5505.02
876.108	4287.86
879.922	3742.56
883.733	3347.3
887.544	3354.1
891.352	3506.17
895.159	3745.5
898.964	4396.13
902.767	5283.22
906.568	6447.6
910.368	7932.26
914.166	11089.3
917.962	16344.7
921.757	24566.4
925.55	33092.5
929.341	33693.8
933.13	27039.4
936.918	21634.4
940.703	13184.7
944.488	7794.26
948.27	5330.19
952.051	3933.44
955.83	2909.01
959.607	2156.92
963.383	1742.16
967.156	1449.73
970.928	1127.63
974.699	918.868
978.468	684.443
982.234	647.369
986	650.669
989.763	650.261
993.525	513.834
997.285	880.796
1001.04	2653.49
1004.8	2109.17
1008.55	1536.84
1012.31	1590.11
1016.06	1217.61
1019.81	1178.71
1023.56	1249.47
1027.31	917.737
1031.05	582.421
1034.79	308.383
1038.53	195.571
1042.27	166.98
1046.01	76.375
1049.75	176.543
1053.48	111.498
1057.22	67.775
1060.95	89.954
1064.68	149.535
1068.4	169.438
1072.13	362.558
1075.86	444.875
1079.58	657.37
1083.3	931.017
1087.02	598.806
1090.74	389.729
1094.45	314.782
1098.17	175.958
1101.88	151.739
1105.59	122.644
1109.3	299.133
1113.01	212.708
1116.71	96.359
1120.42	120.078
1124.12	375.854
1127.82	102.68
1131.52	50.549
1135.22	155.457
1138.91	108.665
1142.61	176.216
1146.3	146.682
1149.99	216.08
1153.68	152.958
1157.37	88.11
1161.06	94.59
1164.74	121.3
1168.42	155.931
1172.1	212.373
1175.78	279.508
1179.46	214.837
1183.14	231.908
1186.81	151.897
1190.48	163.795
1194.15	30.878
1197.83	36.92
1201.49	170.898
1205.16	112.487
1208.82	6.315
1212.49	140.494
1216.15	211.334
1219.81	309.575
1223.46	140.727
1227.12	260.26
1230.78	332.736
1234.43	567.796
1238.08	774.754
1241.73	754.597
1245.38	737.207
1249.03	772.59
1252.67	839.503
1256.31	715.947
1259.95	731.119
1263.6	904.996
1267.23	1077.53
1270.87	1252.74
1274.51	1379.68
1278.14	1290.19
1281.77	1143.57
1285.4	941.19
1289.03	846.723
1292.66	861.893
1296.28	1054.98
1299.91	921.955
1303.53	828.67
1307.15	1049.12
1310.77	1171.29
1314.38	1375.67
1318	1266.58
1321.61	1309.81
1325.23	1078.88
1328.84	721.572
1332.45	372.756
1336.06	122.277
1339.66	75.536
1343.27	27.083
1346.87	67.17
1350.47	137.445
1354.07	106.209
1357.67	44.434
1361.26	20.84
1364.86	8.238
1368.45	83.829
1372.04	55.66
1375.63	285.235
1379.22	399.334
1382.81	440.464
1386.39	344.091
1389.98	383.026
1393.56	374.926
1397.14	153.218
1400.72	60.872
1404.3	78.67
1407.87	247.734
1411.45	241.127
1415.02	196.041
1418.59	135.643
1422.16	84.378
1425.73	0.014
