Measurement: Raman, 514 nm, ccw, Raman Data Processed
Mineral: Topaz
Rruff sample: R050176
Ideal chemistry: Al_2_SiO_4_F_2_
Locality: Jos Plateau, Nigeria
Source: Marcus Origlieri
Description: Colorless prismatic crystal
Measured chemistry: Al_2.000_Si_1.000_O_4.000_(F_1.438_(OH)_0.562_)
Pin_id: L00474
Orientation: Laser parallel to -b* (0 -1 0). Fiducial mark perpendicular to laser is parallel to c [0 0 1]
Raman shift (cm-1)	intensity
91.284	0
95.465	66.021
99.644	134.177
103.82	144.051
107.995	497.807
112.168	15247.5
116.339	1104.45
120.508	295.844
124.675	160.857
128.84	68.268
133.003	206.503
137.164	147.353
141.323	173.28
145.48	203.992
149.635	782.517
153.788	3736.34
157.939	2544.45
162.088	291.737
166.235	146.172
170.38	11.253
174.523	3.581
178.664	33.684
182.803	16.288
186.94	57.164
191.076	47.115
195.209	110.111
199.34	59.299
203.47	55.395
207.597	137.403
211.722	197.335
215.846	191.105
219.967	289.504
224.087	491.53
228.204	1015.33
232.32	3142.4
236.434	16265.2
240.545	56739.8
244.655	12203.5
248.763	2800.36
252.869	1718.2
256.973	1728.89
261.075	3737.79
265.175	20124.3
269.273	53726.5
273.369	8255.13
277.463	4383.27
281.556	13372.1
285.646	51080.1
289.734	21383.7
293.821	4514.3
297.905	2021.66
301.988	1257.46
306.069	802.762
310.147	637.832
314.224	473.044
318.299	474.156
322.372	390.291
326.443	495.446
330.512	1600.62
334.579	1965.14
338.645	685.806
342.708	400.612
346.769	330.196
350.829	231.841
354.887	155.618
358.942	98.439
362.996	65.121
367.048	153.077
371.098	75.028
375.146	88.138
379.192	132.286
383.236	25.462
387.279	47.646
391.319	129.862
395.358	571.12
399.394	2316.43
403.429	5819.82
407.462	2653.3
411.493	871.855
415.522	399.446
419.549	231.1
423.575	102.814
427.598	27.519
431.619	26.034
435.639	14.556
439.657	48.32
443.673	63.239
447.687	35.574
451.699	453.857
455.709	1884.25
459.717	1707.61
463.724	544.926
467.728	228.212
471.731	30.565
475.732	62.887
479.731	175.176
483.728	341.432
487.723	1239.65
491.716	1928.85
495.708	1234.02
499.697	182.215
503.685	160.436
507.671	63.694
511.655	54.042
515.637	326.381
519.617	1162.74
523.596	734.319
527.572	345.372
531.547	299.586
535.52	375.758
539.491	348.297
543.46	377.931
547.427	640.953
551.393	1364.07
555.356	3397.49
559.318	6934.19
563.278	5456.49
567.236	2380.73
571.192	1140.39
575.147	587.66
579.099	331.516
583.05	226.945
586.999	304.114
590.946	194.903
594.891	197.782
598.834	200.029
602.776	178.532
606.715	280.224
610.653	248.127
614.589	221.195
618.523	154.979
622.456	196.701
626.386	260.877
630.315	165.352
634.242	221.887
638.167	529.359
642.09	1448.77
646.012	1672.3
649.931	809.582
653.849	327.006
657.765	224.17
661.679	264.273
665.592	188.316
669.502	50.684
673.411	44.602
677.318	166.458
681.223	106.253
685.126	205.984
689.028	87.661
692.927	83.717
696.825	58.673
700.721	42.979
704.616	41.196
708.508	40.247
712.399	70.823
716.288	70.114
720.175	30.341
724.06	44.575
727.944	44.632
731.825	62.458
735.705	27.205
739.584	122.735
743.46	123.244
747.334	8.75
751.207	27.698
755.078	18.853
758.947	19.413
762.815	164.186
766.68	132.995
770.544	38.77
774.406	7.535
778.267	31.298
782.125	143.996
785.982	19.565
789.837	68.139
793.69	41.721
797.542	36.31
801.391	179.929
805.239	122.595
809.085	76.269
812.93	54.95
816.772	71.673
820.613	95.46
824.452	273.198
828.29	237.019
832.125	96.914
835.959	125.595
839.791	221.649
843.621	421.79
847.45	676.482
851.277	734.86
855.102	750.434
858.925	605.314
862.746	555.613
866.566	495.134
870.384	500.979
874.2	344.497
878.015	296.732
881.828	369.558
885.639	506.208
889.448	621.474
893.256	733.601
897.061	771.93
900.865	958.435
904.668	1062.13
908.468	1573.93
912.267	2392.87
916.064	3559.97
919.86	4999.15
923.653	6962.23
927.445	9023.35
931.236	15022.9
935.024	28567.1
938.811	25383.9
942.596	12120.8
946.379	6064.93
950.161	3478.17
953.94	2425.44
957.719	1868.83
961.495	1498.28
965.27	1203.07
969.043	950.223
972.814	1055.32
976.583	1163.93
980.351	2030.3
984.117	3160.92
987.882	2142.67
991.644	1067.44
995.405	556.846
999.165	350.903
1002.92	444.156
1006.68	445.559
1010.43	364.113
1014.18	290.871
1017.93	129.803
1021.68	192.949
1025.43	224.322
1029.18	222.922
1032.92	313.707
1036.66	274.719
1040.4	191.981
1044.14	96.908
1047.88	120.548
1051.62	161.232
1055.35	184.187
1059.08	289.816
1062.81	192.939
1066.54	115.559
1070.27	66.955
1073.99	30.501
1077.72	107.106
1081.44	246.841
1085.16	348.181
1088.88	268.185
1092.59	126.23
1096.31	30.283
1100.02	57.727
1103.73	130.52
1107.44	239.87
1111.15	273.358
1114.86	215.975
1118.57	161.39
1122.27	23.034
1125.97	69.478
1129.67	37.029
1133.37	324.517
1137.07	251.11
1140.76	436.679
1144.45	159.27
1148.15	75.858
1151.84	41.485
1155.53	130.184
1159.21	382.8
1162.9	800.491
1166.58	858.271
1170.26	609.143
1173.94	342.129
1177.62	87.261
1181.3	50.602
1184.97	86.012
1188.65	105.232
1192.32	326.963
1195.99	338.683
1199.66	379.354
1203.33	272.064
1206.99	106.967
1210.65	4.235
1214.32	28.399
1217.98	178.701
1221.64	412.063
1225.29	505.346
1228.95	484.264
1232.6	382.574
1236.26	241.668
1239.91	64.22
1243.56	36.756
1247.2	176.564
1250.85	324.057
1254.49	434.735
1258.13	477.604
1261.78	499.633
1265.41	298.876
1269.05	139.772
1272.69	25.861
1276.32	78.018
1279.95	276.75
1283.59	411.545
1287.21	597.541
1290.84	652.621
1294.47	481.627
1298.09	363.694
1301.72	50.41
1305.34	40.412
1308.96	134.898
1312.58	239.709
1316.19	402.798
1319.81	522.684
1323.42	696.197
1327.03	558.945
1330.64	474.053
1334.25	168.648
1337.86	0
