Measurement: Raman, 514 nm, ccw, Raman Data Processed
Mineral: Topaz
Rruff sample: R050200
Ideal chemistry: Al_2_SiO_4_F_2_
Locality: Jos Plateau, Nigeria
Source: Marcus Origlieri
Description: Colorless water-worn single crystal
Measured chemistry: Al_2.000_Si_1.000_O_4.000_F_1.488_(OH)_0.512_
Pin_id: L00468
Orientation: Laser parallel to b* (0 1 0). Fiducial mark perpendicular to laser is parallel to c [0 0 1]
Raman shift (cm-1)	intensity
94.071	0
98.251	26.593
102.428	136.65
106.604	227.346
110.777	142.396
114.949	221.22
119.119	183.921
123.286	34.892
127.452	19.67
131.615	63.551
135.777	41.099
139.937	112.322
144.094	47.761
148.25	856.769
152.403	2054.65
156.555	801.194
160.705	113.628
164.853	109.759
168.998	39.945
173.142	26.115
177.284	32.645
181.424	25.98
185.562	31.145
189.698	2.555
193.831	176.449
197.963	223.826
202.093	276.137
206.221	452.644
210.347	155.894
214.472	65.004
218.594	39.888
222.714	115.357
226.832	607.603
230.948	3683.78
235.063	17833.9
239.175	26218.6
243.286	7880.19
247.394	2216.72
251.501	1324.21
255.605	1813.71
259.708	8294.62
263.808	36804.3
267.907	39849.2
272.004	8716.63
276.099	3180.23
280.192	6600.58
284.283	12883
288.372	6185.42
292.459	2178.39
296.544	1200.22
300.627	1001.57
304.709	789.312
308.788	709.886
312.865	736.285
316.941	718.463
321.015	902.185
325.086	1656.72
329.156	3683.96
333.224	3046.54
337.29	1015.74
341.354	606.839
345.416	422.281
349.476	401.978
353.534	399.204
357.591	354.556
361.645	249.867
365.698	260.121
369.748	370.317
373.797	285.461
377.844	177.777
381.889	205.531
385.932	181.091
389.973	231.176
394.012	456.258
398.049	1351.36
402.084	2044.46
406.118	909.608
410.15	289.755
414.179	90.903
418.207	63.049
422.233	32.141
426.257	68.065
430.279	2.146
434.299	101.508
438.318	9.089
442.334	40.581
446.349	1.966
450.361	64.765
454.372	51.107
458.381	15.197
462.388	4.289
466.394	34.672
470.397	71.967
474.398	165.188
478.398	220.348
482.396	230.441
486.391	387.473
490.385	454.442
494.377	261.355
498.368	231.219
502.356	400.915
506.342	696.503
510.327	1519.09
514.31	5011.96
518.291	10524.9
522.27	6176.85
526.247	1747.44
530.222	676.961
534.196	292.62
538.167	276.135
542.137	233.938
546.105	279.526
550.071	537.395
554.035	1226.53
557.998	2726.69
561.958	2521.39
565.917	1165.33
569.874	642.707
573.829	369.329
577.782	239.966
581.733	173.194
585.683	192.54
589.63	155.771
593.576	104.213
597.52	168.834
601.462	146.847
605.402	153.003
609.341	92.764
613.277	73.176
617.212	153.226
621.145	173.919
625.076	179.692
629.006	184.171
632.933	139.476
636.859	188.076
640.783	199.643
644.705	176.151
648.625	164.6
652.543	70.992
656.46	119.328
660.375	128.593
664.288	89.747
668.199	38.814
672.108	58.814
676.016	13.757
679.921	42.639
683.825	57.475
687.727	28.264
691.628	11.986
695.526	9.607
699.423	17.057
703.318	23.561
707.211	53.664
711.102	73.792
714.992	2.733
718.879	49.449
722.765	14.823
726.649	34.299
730.532	113.092
734.412	8.419
738.291	82.73
742.168	35.081
746.043	4.62
749.916	5.311
753.788	35.909
757.658	27.103
761.526	1.773
765.392	55.497
769.257	93.861
773.119	93.322
776.98	159.827
780.839	101.359
784.697	38.912
788.552	50.478
792.406	65.049
796.258	122.649
800.108	42.286
803.957	87.959
807.804	56.887
811.649	90.456
815.492	110.408
819.333	161.517
823.173	139.656
827.011	144.556
830.847	222.709
834.681	280.148
838.514	356.315
842.345	541.525
846.174	694.455
850.001	931.698
853.827	1141
857.651	1199.29
861.473	925.444
865.293	779.242
869.112	924.75
872.928	826.8
876.744	733.056
880.557	865.492
884.369	1043.19
888.178	1274.39
891.987	1477.7
895.793	1766.12
899.598	2353.23
903.401	2934.41
907.202	4138.84
911.001	5933.42
914.799	8969.66
918.595	14084.9
922.389	20140.5
926.182	21645
929.972	17773.9
933.761	13687.5
937.549	11106.4
941.334	7708.65
945.118	4875.77
948.9	3393.38
952.681	2462.85
956.459	1795.39
960.236	1451.13
964.012	1270.72
967.785	1155.82
971.557	1121.29
975.327	1296.67
979.095	1944.17
982.862	3192.3
986.627	2695.89
990.39	1551.75
994.152	846.736
997.912	624.158
1001.67	420.363
1005.43	353.495
1009.18	277.054
1012.93	238.782
1016.68	188.639
1020.43	187.688
1024.18	237.902
1027.93	199.284
1031.67	174.895
1035.42	98.989
1039.16	105.539
1042.9	155.219
1046.63	96.706
1050.37	156.723
1054.11	125.916
1057.84	72.792
1061.57	8.004
1065.3	126.065
1069.03	72.625
1072.75	126.566
1076.47	62.248
1080.2	124.985
1083.92	28.916
1087.64	39.892
1091.36	21.89
1095.07	30.7
1098.79	23.155
1102.5	24.95
1106.21	43.94
1109.92	21.438
1113.62	15.231
1117.33	7.221
1121.04	123.91
1124.74	165.035
1128.44	78.212
1132.14	35.118
1135.83	70.141
1139.53	35.137
1143.22	5.861
1146.92	156.154
1150.61	81.439
1154.3	245.434
1157.98	524.472
1161.67	917.552
1165.35	1077.45
1169.04	644.725
1172.72	290.197
1176.4	268.017
1180.07	131.693
1183.75	183.449
1187.42	31.404
1191.1	31.065
1194.77	4.144
1198.44	49.29
1202.1	73.693
1205.77	83.124
1209.43	63.744
1213.1	72.857
1216.76	35.154
1220.42	95.851
1224.07	119.421
1227.73	75.823
1231.38	2.608
1235.04	105.047
1238.69	110.601
1242.34	112.243
1245.99	23.075
1249.63	6.752
1253.28	50.137
1256.92	74.982
1260.56	41.594
1264.2	81.884
1267.84	66.29
1271.48	85.618
1275.11	60.509
1278.74	111.531
1282.38	88.747
1286.01	112.702
1289.63	6.266
1293.26	30.022
1296.89	109.075
1300.51	48.609
1304.13	49.058
1307.75	165.423
1311.37	199.698
1314.99	3.111
1318.6	113.978
1322.22	111.993
1325.83	75.84
1329.44	71.702
1333.05	108.295
1336.66	73.689
1340.26	10.377
1343.87	93.962
1347.47	81.496
1351.07	55.397
1354.67	175.004
1358.27	29.806
1361.86	155.554
1365.46	174.903
1369.05	110.262
1372.64	164.645
1376.23	186.956
1379.82	101.262
1383.41	132.645
1386.99	147.832
1390.57	91.932
1394.16	105.878
1397.74	106.725
1401.32	123.901
1404.89	220.208
1408.47	49.984
1412.04	87.328
1415.61	197.005
1419.18	78.548
1422.75	256.409
1426.32	279.567
1429.89	120.444
1433.45	190.286
1437.01	217.884
1440.58	302.792
1444.13	218.225
1447.69	242.914
1451.25	274.014
1454.81	259.518
1458.36	298.212
1461.91	285.409
1465.46	253.683
1469.01	185.018
1472.56	239.365
1476.1	254.779
1479.64	149.357
1483.19	175.121
1486.73	147.512
1490.27	137.015
1493.81	91.023
1497.34	175.993
1500.88	59.293
1504.41	2.669
1507.94	66.216
1511.47	77.624
1515	5.18
1518.53	32.091
1522.05	61.276
1525.57	0
