Measurement: Raman, 514 nm, ccw, Raman Data Processed
Mineral: Topaz
Rruff sample: R050176
Ideal chemistry: Al_2_SiO_4_F_2_
Locality: Jos Plateau, Nigeria
Source: Marcus Origlieri
Description: Colorless prismatic crystal
Measured chemistry: Al_2.000_Si_1.000_O_4.000_(F_1.438_(OH)_0.562_)
Pin_id: L00136
Orientation: Laser parallel to -c* (0 0 -1). Fiducial mark perpendicular to laser is parallel to a [1 0 0]
Raman shift (cm-1)	intensity
94.071	0
98.251	46.49
102.428	172.389
106.604	734.436
110.777	3331.15
114.949	1239.46
119.119	761.257
123.286	472.934
127.452	428.294
131.615	284.067
135.777	306.819
139.937	295.79
144.094	290.43
148.25	355.847
152.403	927.106
156.555	2145.23
160.705	327.926
164.853	194.874
168.998	329.683
173.142	124.257
177.284	61.421
181.424	13.11
185.562	61.271
189.698	36.562
193.831	63.972
197.963	133.704
202.093	44.601
206.221	86.299
210.347	24.013
214.472	176.461
218.594	77.108
222.714	44.845
226.832	279.677
230.948	1704.53
235.063	9547.45
239.175	21025.5
243.286	10125.7
247.394	2078.15
251.501	1036.77
255.605	839.567
259.708	1913.78
263.808	11598.1
267.907	45067
272.004	11973.7
276.099	5453.44
280.192	5269.65
284.283	18645
288.372	19012.7
292.459	4230.72
296.544	1619.05
300.627	907.564
304.709	871.21
308.788	846.893
312.865	800.561
316.941	836.249
321.015	950.005
325.086	1868.89
329.156	6409.9
333.224	13719
337.29	3653.28
341.354	1171.66
345.416	714.876
349.476	596.368
353.534	1002.91
357.591	3760.53
361.645	2149.67
365.698	398.522
369.748	324.126
373.797	402.687
377.844	451.624
381.889	551.229
385.932	324.38
389.973	562.886
394.012	850.529
398.049	2643.23
402.084	7736.1
406.118	5727.02
410.15	1431.05
414.179	368.087
418.207	16.378
422.233	87.679
426.257	29.86
430.279	151.812
434.299	202.782
438.318	58.481
442.334	356.147
446.349	262.334
450.361	1596.69
454.372	7424.2
458.381	11157.2
462.388	3706.02
466.394	1019.77
470.397	540.122
474.398	648.384
478.398	331.522
482.396	272.516
486.391	140.363
490.385	845.049
494.377	1007.57
498.368	570.455
502.356	163.156
506.342	238.343
510.327	537.413
514.31	1325.18
518.291	3771.37
522.27	3896.93
526.247	1216.82
530.222	684.94
534.196	222.624
538.167	258.94
542.137	547.925
546.105	2212.2
550.071	2319.15
554.035	1017.71
557.998	1789.59
561.958	2336.68
565.917	1332.7
569.874	455.983
573.829	330.037
577.782	296.88
581.733	269.501
585.683	337.946
589.63	134.154
593.576	35.706
597.52	101.575
601.462	259.167
605.402	110.43
609.341	27.506
613.277	285.584
617.212	328.606
621.145	558.338
625.076	398.854
629.006	449.533
632.933	308.133
636.859	667.693
640.783	913.219
644.705	887.055
648.625	491.598
652.543	210.852
656.46	375.814
660.375	213.475
664.288	99.844
668.199	45.9
672.108	32.383
676.016	366.756
679.921	171.328
683.825	33.451
687.727	75.912
691.628	22.809
695.526	103.85
699.423	151.154
703.318	68.045
707.211	236.406
711.102	135.447
714.992	259.939
718.879	194.908
722.765	126.365
726.649	25.584
730.532	92.088
734.412	165.006
738.291	228.076
742.168	62.777
746.043	63.045
749.916	65.074
753.788	173.967
757.658	265.496
761.526	213.281
765.392	24.988
769.257	115.324
773.119	273.488
776.98	285.652
780.839	277.641
784.697	102.76
788.552	9.275
792.406	56.602
796.258	244.447
800.108	524.285
803.957	429.107
807.804	148.865
811.649	239.191
815.492	347.484
819.333	595.463
823.173	772.973
827.011	755.678
830.847	847.641
834.681	1208.28
838.514	2154.91
842.345	3881.64
846.174	6533.52
850.001	9143.49
853.827	11306.7
857.651	10388.7
861.473	6766.66
865.293	4289.78
869.112	2956.3
872.928	2235.42
876.744	1963.46
880.557	1706.1
884.369	2039.89
888.178	2267.83
891.987	2360.02
895.793	3038.29
899.598	3944.26
903.401	5301.62
907.202	6775.91
911.001	8416.91
914.799	11192.2
918.595	16601.8
922.389	23508.6
926.182	26744.7
929.972	21875.1
933.761	16433.6
937.549	12113.9
941.334	7830.07
945.118	5024.54
948.9	3658.8
952.681	2719.59
956.459	2339.53
960.236	1889.38
964.012	1377.66
967.785	1179.87
971.557	901.217
975.327	1034.86
979.095	1147.61
982.862	1273.01
986.627	1119.58
990.39	882.775
994.152	578.627
997.912	954.299
1001.67	1851.62
1005.43	2953.23
1009.18	3866.22
1012.93	2857.53
1016.68	1431.26
1020.43	776.357
1024.18	761.811
1027.93	854.689
1031.67	604.869
1035.42	486.002
1039.16	377.871
1042.9	187.852
1046.63	62.094
1050.37	264.607
1054.11	412.412
1057.84	471.051
1061.57	414.994
1065.3	318.676
1069.03	134.576
1072.75	9.719
1076.47	313.01
1080.2	417.062
1083.92	687.916
1087.64	388.955
1091.36	153.145
1095.07	86.572
1098.79	103.41
1102.5	26.188
1106.21	370.23
1109.92	471.84
1113.62	187.617
1117.33	107.297
1121.04	59.994
1124.74	20.785
1128.44	16.416
1132.14	48.658
1135.83	72.955
1139.53	350.232
1143.22	416.92
1146.92	57
1150.61	51.066
1154.3	23.455
1157.98	436.549
1161.67	738.684
1165.35	936.607
1169.04	648.785
1172.72	578.857
1176.4	227.619
1180.07	129.439
1183.75	150.77
1187.42	78.072
1191.1	127.334
1194.77	94.059
1198.44	263.693
1202.1	561.441
1205.77	198.365
1209.43	60.502
1213.1	171.789
1216.76	198.215
1220.42	384.658
1224.07	570.334
1227.73	640.068
1231.38	469.551
1235.04	332.291
1238.69	330.543
1242.34	146.471
1245.99	148.119
1249.63	413.711
1253.28	482.441
1256.92	704.32
1260.56	698.662
1264.2	642.904
1267.84	343.697
1271.48	292.574
1275.11	143.508
1278.74	25.615
1282.38	301.611
1286.01	347.844
1289.63	512.684
1293.26	650.199
1296.89	533.16
1300.51	169.363
1304.13	229.809
1307.75	10.777
1311.37	131.812
1314.99	72.254
1318.6	403.027
1322.22	461.844
1325.83	445.223
1329.44	567.168
1333.05	451.781
1336.66	61.006
