Measurement: Raman, 514 nm, ccw, Raman Data Processed
Mineral: Topaz
Rruff sample: R040121
Ideal chemistry: Al_2_SiO_4_F_2_
Locality: Tepetate, San Luis Potosi, Mexico
Source: University of Arizona Mineral Museum
Description: Fragments of a prismatic single crystal
Measured chemistry: Al_2.00_(Si_0.99_Al_0.02_)(F_0.82_(OH)_0.18_)_2_
Pin_id: L00473
Orientation: Laser parallel to a* (1 0 0). Fiducial mark perpendicular to laser is parallel to b [0 1 0]
Raman shift (cm-1)	intensity
98.947	0
103.124	95.16
107.3	294.539
111.473	352.806
115.644	1585.23
119.813	1211.13
123.981	273.706
128.146	50.754
132.309	115.842
136.47	70.581
140.63	279.297
144.787	470.285
148.942	1541.16
153.096	3285.27
157.247	2466.2
161.396	2955.34
165.544	4551.21
169.689	783.387
173.833	152.476
177.974	113.016
182.114	72.366
186.251	8.583
190.387	44.59
194.52	66.992
198.652	65.271
202.782	30.095
206.909	5.596
211.035	25.99
215.159	36.061
219.281	160.545
223.4	314.897
227.518	876.483
231.634	4653.46
235.748	20750.8
239.86	39959.8
243.97	9636.99
248.079	2848.19
252.185	1542.96
256.289	1993.46
260.391	8476.64
264.492	33193.6
268.59	35534.3
272.687	7875.94
276.781	5847.21
280.874	20034.7
284.964	54336.5
289.053	22308.8
293.14	5499.98
297.225	1779.63
301.308	899.4
305.389	844.607
309.468	1164.09
313.545	3359.51
317.62	6617.88
321.693	1887.5
325.765	2971.56
329.834	9764.84
333.902	7943.86
337.967	1815.18
342.031	574.079
346.093	168.076
350.153	232.15
354.21	134.334
358.267	82.73
362.321	87.52
366.373	347.222
370.423	957.212
374.471	233.446
378.518	138.004
382.563	35.789
386.605	69.808
390.646	119.975
394.685	1115.69
398.722	5583.09
402.757	15107.1
406.79	4656.51
410.821	1305.49
414.851	598.247
418.878	470.77
422.904	762.766
426.927	493.654
430.949	144.734
434.969	8.404
438.987	53.301
443.003	136.394
447.018	669.061
451.03	3855.42
455.041	14333.4
459.049	6533.08
463.056	1372.42
467.061	376.407
471.064	39.045
475.065	120.282
479.064	14.922
483.062	42.338
487.057	714.226
491.051	1388.67
495.043	764.079
499.032	280.058
503.02	139.046
507.007	647.475
510.991	1343.04
514.973	724.145
518.954	683.204
522.933	601.327
526.91	270.659
530.885	259.425
534.858	160.271
538.829	187.579
542.799	4.95
546.766	297.203
550.732	780.75
554.696	1953.19
558.658	5521.34
562.618	6696.19
566.576	2613.86
570.533	934.744
574.488	459.746
578.44	192.329
582.391	207.285
586.341	223.484
590.288	132.611
594.233	207.109
598.177	233.707
602.119	353.891
606.059	383.239
609.997	260.695
613.933	396.954
617.868	297.979
621.801	525.771
625.731	508.337
629.66	454.587
633.588	409.623
637.513	848.184
641.437	1781.71
645.358	2254.11
649.278	1173.47
653.196	623.651
657.113	353.608
661.027	213.876
664.94	147.441
668.851	31.771
672.76	28.656
676.667	14.233
680.572	69.485
684.476	43.799
688.378	187.902
692.278	213.332
696.176	62.888
700.072	103.512
703.967	252.33
707.86	285.171
711.751	466.952
715.64	309.187
719.527	85.324
723.413	8.122
727.297	105.497
731.179	39.64
735.059	21.316
738.937	40.267
742.814	14.356
746.689	40.044
750.562	187.907
754.433	65.867
758.303	123.994
762.17	88.049
766.036	233.008
769.901	112.967
773.763	81.989
777.624	62.082
781.482	32.256
785.339	229.528
789.195	76.935
793.048	200.532
796.9	280.321
800.75	301.245
804.598	328.298
808.445	310.476
812.289	353.787
816.132	306.01
819.973	388.055
823.813	610.67
827.65	710.098
831.486	851.424
835.32	1313.07
839.152	1727.54
842.983	2599.34
846.812	4447.69
850.639	8239.36
854.464	13102.4
858.288	11720.8
862.11	7201.59
865.93	4178.68
869.748	2685.08
873.564	2110.77
877.379	1949.16
881.192	1555.34
885.004	1573.92
888.813	1491.18
892.621	1831.8
896.427	1992.01
900.232	2253.81
904.034	2633.39
907.835	3398.91
911.634	4680.02
915.432	6475.66
919.227	9925.69
923.021	15028
926.813	19280.6
930.604	20599.6
934.393	25627.9
938.18	32767.5
941.965	19221.4
945.749	9946.59
949.53	5590.05
953.311	3617.36
957.089	2787.38
960.866	2008.66
964.641	1833.24
968.414	1550.11
972.185	1234.75
975.955	1134.73
979.723	987.275
983.49	1045.12
987.254	1039.59
991.017	939.537
994.779	1087.88
998.538	1082.94
1002.3	2246.5
1006.05	2860.12
1009.81	4031.11
1013.56	2553.85
1017.31	1379.35
1021.06	1155.38
1024.81	811.529
1028.55	624.393
1032.3	462.049
1036.04	391.098
1039.78	634.736
1043.52	479.68
1047.26	278.713
1050.99	504.896
1054.73	307.104
1058.46	333.805
1062.19	442.979
1065.92	302.744
1069.65	330.803
1073.37	504.551
1077.1	408.201
1080.82	558.148
1084.54	519.684
1088.26	405.24
1091.97	192.311
1095.69	189.93
1099.4	279.65
1103.12	81.393
1106.83	198.797
1110.54	132.5
1114.24	186.062
1117.95	89.859
1121.65	217.98
1125.35	171.564
1129.06	178.904
1132.75	3.998
1136.45	129.156
1140.15	58.828
1143.84	68.135
1147.53	55.838
1151.22	67.756
1154.91	49.154
1158.6	97.248
1162.28	168.969
1165.97	66.039
1169.65	20.18
1173.33	143.74
1177.01	55.863
1180.69	122.783
1184.36	20.861
1188.04	26.812
1191.71	97.74
1195.38	177.301
1199.05	204.854
1202.71	46.969
1206.38	315.064
1210.04	120.965
1213.71	13.676
1217.37	296.275
1221.03	181.658
1224.68	328.549
1228.34	235.77
1231.99	61.369
1235.65	310.475
1239.3	379.055
1242.95	257.857
1246.59	434.789
1250.24	435.201
1253.88	218.535
1257.53	125.676
1261.17	236.426
1264.81	304.723
1268.45	442.576
1272.08	352.145
1275.72	530.725
1279.35	496.008
1282.98	439.152
1286.61	345.572
1290.24	389.779
1293.87	366.697
1297.49	383.654
1301.11	405.791
1304.73	175.674
1308.36	217.535
1311.97	441.455
1315.59	335.67
1319.2	415.625
1322.82	414.127
1326.43	342.656
1330.04	187.322
1333.65	191.535
1337.26	46.18
1340.86	68.637
1344.47	118.9
1348.07	213.506
1351.67	162.543
1355.27	123.795
1358.87	109.932
1362.46	214.957
1366.06	181.473
1369.65	220.195
1373.24	255.949
1376.83	393.795
1380.42	449.73
1384	464.984
1387.59	382.977
1391.17	253.791
1394.75	140.484
1398.33	282.436
1401.91	288.943
1405.49	207.426
1409.06	243.547
1412.64	182.695
1416.21	212.75
1419.78	42.404
1423.35	207.949
1426.91	19.463
