Measurement: Raman, 514 nm, ccw, Raman Data Processed
Mineral: Topaz
Rruff sample: R040121
Ideal chemistry: Al_2_SiO_4_F_2_
Locality: Tepetate, San Luis Potosi, Mexico
Source: University of Arizona Mineral Museum
Description: Fragments of a prismatic single crystal
Measured chemistry: Al_2.00_(Si_0.99_Al_0.02_)(F_0.82_(OH)_0.18_)_2_
Pin_id: L00213
Orientation: Laser parallel to -b* (0 -1 0). Fiducial mark perpendicular to laser is parallel to -c [0 0 -1]
Raman shift (cm-1)	intensity
97.554	0
101.732	45.313
105.908	185.915
110.082	134.878
114.254	452.996
118.424	1447.63
122.592	207.415
126.758	3.937
130.922	65.312
135.083	50.337
139.243	130.102
143.401	45.036
147.557	815.397
151.711	4534.53
155.863	2267.96
160.013	305.565
164.161	32.323
168.308	11.431
172.452	21.116
176.594	0.673
180.734	12.176
184.872	29.73
189.008	29.701
193.143	42.107
197.275	7.559
201.405	147.708
205.534	245.946
209.66	240.14
213.784	196.282
217.907	414.317
222.027	493.262
226.146	728.153
230.263	2321.01
234.377	15127.7
238.49	52196.6
242.601	12265.5
246.709	2623.45
250.816	1383.81
254.921	1456.16
259.024	3929.5
263.125	23736.8
267.224	46662.4
271.321	7297.62
275.416	3621.4
279.51	11206.2
283.601	45452.9
287.69	21388.7
291.778	3738.5
295.863	1323.38
299.947	616.149
304.029	485.868
308.108	305.848
312.186	250.573
316.262	151.276
320.336	233.994
324.408	205.724
328.478	978.463
332.546	1388.19
336.612	321.207
340.677	103.046
344.739	36.179
348.799	62.406
352.858	66.13
356.915	5.839
360.969	56.151
365.022	61.211
369.073	17.807
373.122	123.367
377.169	16.937
381.215	18.542
385.258	44.105
389.299	51.631
393.339	219.128
397.376	1578.55
401.412	7145.96
405.446	3092.34
409.478	787.75
413.508	374.195
417.536	122.664
421.562	100.194
425.586	73.771
429.609	21.586
433.629	22.956
437.648	66.579
441.665	52.354
445.68	42.805
449.693	371.062
453.704	1934.33
457.713	1625.62
461.721	143.913
465.726	109.189
469.73	40.435
473.731	88.682
477.731	118.821
481.729	203.983
485.725	557.135
489.72	1967.26
493.712	1004.37
497.703	208.474
501.691	104.554
505.678	155.615
509.663	74.65
513.646	240.654
517.627	685.378
521.607	767.96
525.584	315.75
529.56	312.801
533.534	219.661
537.506	288.42
541.476	297.085
545.444	532.198
549.41	658.457
553.375	1570.3
557.337	4867.77
561.298	8520.18
565.257	3901.47
569.214	1430.7
573.17	723.541
577.123	412.062
581.075	340.634
585.024	213.899
588.972	256.722
592.918	233.773
596.863	167.629
600.805	254.217
604.746	282.476
608.685	293.352
612.621	447.907
616.557	421.133
620.49	414.331
624.421	482.317
628.351	347.191
632.279	408.968
636.205	658.689
640.129	1360.81
644.051	2189.43
647.972	1349.99
651.89	792.675
655.807	584.138
659.722	462.549
663.636	373.909
667.547	206.223
671.457	159.484
675.365	141.702
679.271	127.89
683.175	241.039
687.077	94.205
690.978	123.328
694.877	29.308
698.774	122.196
702.669	166.093
706.562	60.962
710.454	2.798
714.344	113.565
718.232	25.263
722.118	35.128
726.002	115.312
729.885	39.647
733.766	15.871
737.645	42.056
741.522	15.148
745.397	1.641
749.271	6.452
753.143	65.279
757.013	93.13
760.881	105.211
764.748	4.793
768.613	9.42
772.476	96.873
776.337	31.122
780.196	58.363
784.054	53.605
787.91	111.849
791.764	94.096
795.616	134.32
799.467	97.54
803.316	152.769
807.163	175.043
811.008	199.349
814.851	145.691
818.693	93.015
822.533	227.386
826.371	205.778
830.208	273.207
834.042	192.675
837.875	319.217
841.706	315.853
845.536	574.549
849.363	705.067
853.189	1069.93
857.013	1191.02
860.836	1074.2
864.656	807.639
868.475	704.705
872.292	645.194
876.108	595.717
879.922	637.689
883.733	756.879
887.544	712.368
891.352	926.884
895.159	828.512
898.964	1036.11
902.767	1305.07
906.568	1550.8
910.368	1766.58
914.166	2566.1
917.962	3766.1
921.757	5439.69
925.55	7685.48
929.341	9419.8
933.13	14693.4
936.918	28930.8
940.703	21166.7
944.488	9219.58
948.27	4923.13
952.051	2918.22
955.83	2123.53
959.607	1632.86
963.383	1369.33
967.156	1284.71
970.928	1080.93
974.699	1247.44
978.468	1549.02
982.234	2423.36
986	3136.62
989.763	2096.06
993.525	1096.69
997.285	950.756
1001.04	817.023
1004.8	686.755
1008.55	544.954
1012.31	535.234
1016.06	457.763
1019.81	456.592
1023.56	461.858
1027.31	320.86
1031.05	206.725
1034.79	312.753
1038.53	314.597
1042.27	283.652
1046.01	206.427
1049.75	172.078
1053.48	162.144
1057.22	244.872
1060.95	327.331
1064.68	287.749
1068.4	249.227
1072.13	254.455
1075.86	251.285
1079.58	258.809
1083.3	347.111
1087.02	171.754
1090.74	129.869
1094.45	184.926
1098.17	48.075
1101.88	99.891
1105.59	75.292
1109.3	147.956
1113.01	102.183
1116.71	1.177
1120.42	120.201
1124.12	414.929
1127.82	27.896
1131.52	117.396
1135.22	75.332
1138.91	24.623
1142.61	27.456
1146.3	71.01
1149.99	40.147
1153.68	95.227
1157.37	62.055
1161.06	75.278
1164.74	129.289
1168.42	24.511
1172.1	66.205
1175.78	107.245
1179.46	104.165
1183.14	131.412
1186.81	194.851
1190.48	72.246
1194.15	19.727
1197.83	78.146
1201.49	247.554
1205.16	45.941
1208.82	126.827
1212.49	236.791
1216.15	145.956
1219.81	246.632
1223.46	108.281
1227.12	2.909
1230.78	56.073
1234.43	142.443
1238.08	129.558
1241.73	6.281
1245.38	185.814
1249.03	199.282
1252.67	106.076
1256.31	101.913
1259.95	22.792
1263.6	152.63
1267.23	146.719
1270.87	303.086
1274.51	110.384
1278.14	333.2
1281.77	236.272
1285.4	90.649
1289.03	18.058
1292.66	101.818
1296.28	233.192
1299.91	156.107
1303.53	83.519
1307.15	3.4
1310.77	49.831
1314.38	168.392
1318	72.025
1321.61	106.753
1325.23	234.307
1328.84	6.368
1332.45	71.001
1336.06	12.812
1339.66	94.688
1343.27	74.093
1346.87	125.437
1350.47	180.99
1354.07	210.578
1357.67	139.014
1361.26	16.361
1364.86	1.122
1368.45	54.731
1372.04	23.335
1375.63	143.677
1379.22	131.076
1382.81	142.882
1386.39	174.752
1389.98	161.208
1393.56	213.324
1397.14	104.506
1400.72	294.608
1404.3	131.766
1407.87	191.096
1411.45	215.62
1415.02	259.663
1418.59	166.217
1422.16	205.324
1425.73	105.25
1429.29	137.663
1432.86	224.587
1436.42	255.697
1439.98	397.541
1443.54	550.551
1447.1	642.493
1450.66	671.956
1454.21	679.867
1457.77	631.946
1461.32	501.154
1464.87	363.398
1468.42	472.881
1471.96	288.036
1475.51	387.63
1479.06	252.065
1482.6	313.094
1486.14	183.587
1489.68	297.421
1493.22	295.731
1496.75	88.078
1500.29	111.59
1503.82	180.387
1507.35	193.926
1510.88	170.099
1514.41	90.963
1517.94	113.888
