Measurement: Raman, 514 nm, ccw, Raman Data Processed
Mineral: Topaz
Rruff sample: R050200
Ideal chemistry: Al_2_SiO_4_F_2_
Locality: Jos Plateau, Nigeria
Source: Marcus Origlieri
Description: Colorless water-worn single crystal
Measured chemistry: Al_2.000_Si_1.000_O_4.000_F_1.488_(OH)_0.512_
Pin_id: L00096
Orientation: Laser parallel to a* (1 0 0). Fiducial mark perpendicular to laser is parallel to b [0 1 0]
Raman shift (cm-1)	intensity
95.465	0
99.644	69.062
103.82	96.999
107.995	250.038
112.168	234.467
116.339	345.105
120.508	126.548
124.675	97.032
128.84	93.826
133.003	34.882
137.164	36.448
141.323	139.546
145.48	172.009
149.635	816.035
153.788	1795.55
157.939	1382.98
162.088	563.833
166.235	442.57
170.38	180.59
174.523	90.806
178.664	38.263
182.803	64.426
186.94	2.372
191.076	79.954
195.209	98.027
199.34	182.44
203.47	191.072
207.597	325.879
211.722	26.801
215.846	105.23
219.967	39.298
224.087	9.69
228.204	288.751
232.32	1978.3
236.434	8616.1
240.545	15572.3
244.655	6254.99
248.763	1888.93
252.869	1040.12
256.973	1411.55
261.075	6357.86
265.175	23658.6
269.273	36129.6
273.369	10109.3
277.463	6534.75
281.556	21496.8
285.646	47460.3
289.734	29182.6
293.821	8194.35
297.905	2951.13
301.988	1724.18
306.069	1339.18
310.147	1250.72
314.224	1597.5
318.299	1808.28
322.372	2676.99
326.443	9070.17
330.512	24531.5
334.579	26894.7
338.645	7885.47
342.708	2601.32
346.769	1223.49
350.829	753.472
354.887	577.749
358.942	492.93
362.996	330.974
367.048	387.65
371.098	445.509
375.146	408.69
379.192	384.566
383.236	452.881
387.279	685.789
391.319	1403.77
395.358	3723.24
399.394	11622.8
403.429	20694.5
407.462	11520.4
411.493	3652.38
415.522	1325.58
419.549	676.939
423.575	400.836
427.598	258.004
431.619	187.978
435.639	343.772
439.657	547.314
443.673	1026.45
447.687	2822.76
451.699	10733.4
455.709	28109.2
459.717	25339.7
463.724	9196.23
467.728	3661.77
471.731	1616.32
475.732	1017.88
479.731	627.44
483.728	518.018
487.723	567.617
491.716	656.239
495.708	286.877
499.697	139.547
503.685	29.36
507.671	89.389
511.655	131.004
515.637	97.852
519.617	116.714
523.596	129.179
527.572	11.83
531.547	7.705
535.52	4.892
539.491	45.099
543.46	51.22
547.427	204.641
551.393	379.955
555.356	920.219
559.318	1897.03
563.278	1564.08
567.236	665.913
571.192	252.04
575.147	51.538
579.099	59.905
583.05	6.499
586.999	1.387
590.946	38.391
594.891	111.523
598.834	9.817
602.776	49.431
606.715	14.604
610.653	23.417
614.589	131.494
618.523	162.474
622.456	185.356
626.386	140.14
630.315	333.826
634.242	533.413
638.167	853.902
642.09	1683.29
646.012	1787.58
649.931	837.777
653.849	230.872
657.765	66.87
661.679	21.965
665.592	43.546
669.502	28.175
673.411	31.447
677.318	5.372
681.223	3.556
685.126	59.967
689.028	48.663
692.927	7.505
696.825	7.642
700.721	13.429
704.616	93.189
708.508	121.859
712.399	60.442
716.288	22.093
720.175	17.175
724.06	40.722
727.944	36.859
731.825	21.262
735.705	32.167
739.584	26.175
743.46	11.259
747.334	71.894
751.207	25.749
755.078	17.003
758.947	15.55
762.815	86.58
766.68	40.89
770.544	24.533
774.406	105.188
778.267	108.841
782.125	167.493
785.982	183.149
789.837	244.813
793.69	335.491
797.542	386.217
801.391	432.975
805.239	492.775
809.085	641.629
812.93	734.552
816.772	735.262
820.613	1014.23
824.452	1305.54
828.29	1739.74
832.125	2473.7
835.959	3520.59
839.791	5827.54
843.621	10634
847.45	18362.8
851.277	25365.5
855.102	30277.7
858.925	26496.7
862.746	16296.8
866.566	9651.04
870.384	6373.89
874.2	4766.3
878.015	3745.21
881.828	3103.11
885.639	2778.49
889.448	2650.57
893.256	2769.25
897.061	3196.15
900.865	3780.95
904.668	4741.37
908.468	6339.25
912.267	9032.93
916.064	14135.6
919.86	22240.9
923.653	31803.5
927.445	34644.2
931.236	28599
935.024	21214.1
938.811	14512.3
942.596	8960.71
946.379	5925.68
950.161	4197.18
953.94	3145.11
957.719	2297.75
961.495	1823.05
965.27	1546.75
969.043	1181.37
972.814	1041.16
976.583	749.148
980.351	633.408
984.117	576.909
987.882	610.844
991.644	545.652
995.405	422.837
999.165	557.007
1002.92	879.563
1006.68	1186.3
1010.43	1294.18
1014.18	765.202
1017.93	441.363
1021.68	296.692
1025.43	281.215
1029.18	185.915
1032.92	137.709
1036.66	121.496
1040.4	86.008
1044.14	125.144
1047.88	94.753
1051.62	115.207
1055.35	131.216
1059.08	148.1
1062.81	112.22
1066.54	93.883
1070.27	143.724
1073.99	56.504
1077.72	112.388
1081.44	85.471
1085.16	67.974
1088.88	65.551
1092.59	9.413
1096.31	19.721
1100.02	28.53
1103.73	56.498
1107.44	28.528
1111.15	10.763
1114.86	27.911
1118.57	47.418
1122.27	125.877
1125.97	155.303
1129.67	38.722
1133.37	47.2
1137.07	18.431
1140.76	88.881
1144.45	23.864
1148.15	81.245
1151.84	22.166
1155.53	69.049
1159.21	62.037
1162.9	204.761
1166.58	171.449
1170.26	266.076
1173.94	215.698
1177.62	93.321
1181.3	4.253
1184.97	51.828
1188.65	31.803
1192.32	3.446
1195.99	31.666
1199.66	10.141
1203.33	3.762
1206.99	2.202
1210.65	37.454
1214.32	18.947
1217.98	9.194
1221.64	34.254
1225.29	17.189
1228.95	97.987
1232.6	78.67
1236.26	81.242
1239.91	115.55
1243.56	124.619
1247.2	50.06
1250.85	41.081
1254.49	92.316
1258.13	52.111
1261.78	141.787
1265.41	115.379
1269.05	125.851
1272.69	151.205
1276.32	122.435
1279.95	120.541
1283.59	117.541
1287.21	137.376
1290.84	167.789
1294.47	127.773
1298.09	152.126
1301.72	158.343
1305.34	185.451
1308.96	88.45
1312.58	144.34
1316.19	85.123
1319.81	77.797
1323.42	143.363
1327.03	54.297
1330.64	23.639
1334.25	88.614
1337.86	99.061
1341.46	93.83
1345.07	23.342
1348.67	84.811
1352.27	1.178
1355.87	107.666
1359.46	125.134
1363.06	165.967
1366.65	104.957
1370.25	72.828
1373.84	86.653
1377.43	129.14
1381.02	232.269
1384.6	118.551
1388.18	118.353
1391.77	148.968
1395.35	56.919
1398.93	154.059
1402.51	190.104
1406.08	135.86
1409.66	148.53
1413.23	166.227
1416.8	159.578
1420.37	175.042
1423.94	187.221
1427.51	143.365
1431.08	132.683
1434.64	84.961
1438.2	145.725
1441.76	128.224
1445.32	212.889
1448.88	160.687
1452.43	150.464
1455.99	108.166
1459.54	208.851
1463.09	198.484
1466.64	124.031
1470.19	135.511
1473.74	126.94
1477.28	67.352
1480.83	77.979
1484.37	83.106
1487.91	77.647
1491.45	63.28
1494.98	79.048
1498.52	38.547
1502.05	4.665
1505.59	11.12
1509.12	6.641
1512.65	54.145
1516.17	94.689
1519.7	90.893
1523.23	6.611
1526.75	0
