Measurement: Raman, 514 nm, ccw, Raman Data Processed
Mineral: Topaz
Rruff sample: R050176
Ideal chemistry: Al_2_SiO_4_F_2_
Locality: Jos Plateau, Nigeria
Source: Marcus Origlieri
Description: Colorless prismatic crystal
Measured chemistry: Al_2.000_Si_1.000_O_4.000_(F_1.438_(OH)_0.562_)
Pin_id: L00271
Orientation: Laser parallel to a* (1 0 0). Fiducial mark perpendicular to laser is parallel to b [0 1 0]
Raman shift (cm-1)	intensity
88.496	0
92.678	1.681
96.858	61.847
101.036	66.435
105.212	83.173
109.387	462.574
113.559	8832.15
117.729	366.784
121.897	163.124
126.063	92.219
130.228	144.399
134.39	99.058
138.55	134.77
142.709	124.397
146.865	222.653
151.019	1104.31
155.171	6429.19
159.322	1101.15
163.47	327.125
167.617	278.04
171.761	122.707
175.904	116.448
180.044	90.402
184.183	39.332
188.319	93.783
192.454	144.793
196.586	72.068
200.717	138.628
204.846	133.559
208.972	191.782
213.097	206.295
217.22	330.097
221.341	362.192
225.46	627.56
229.577	1365.19
233.692	5234.08
237.805	25724.2
241.916	38753.5
246.025	6145.06
250.132	2122.86
254.237	1459.52
258.34	1794.25
262.442	6597.95
266.541	38513.3
270.639	27397.7
274.734	4664.58
278.828	5301.23
282.919	20002.8
287.009	48082.7
291.097	10813.1
295.183	3003.36
299.266	1582.9
303.348	931.748
307.428	704.876
311.507	569.26
315.583	599.839
319.657	487.678
323.729	401.72
327.8	657.951
331.868	2125.36
335.935	1154.93
339.999	392.657
344.062	283.745
348.123	244.961
352.182	173.129
356.239	86.414
360.294	103.814
364.347	80.334
368.398	40.985
372.448	113.775
376.495	84.682
380.54	70.735
384.584	40.892
388.626	96.139
392.666	268.502
396.704	849.976
400.74	3089.53
404.774	5167.22
408.806	1574.02
412.836	534
416.865	235.076
420.891	105.363
424.916	6.16
428.939	14.485
432.959	3.219
436.978	124.107
440.996	132.734
445.011	28.685
449.024	15.761
453.036	706.156
457.045	2354.13
461.053	1058.16
465.059	300.237
469.063	172.36
473.065	15.451
477.065	59.719
481.063	194.921
485.06	407.149
489.054	1735.4
493.047	1241.67
497.038	295.962
501.027	88.266
505.014	119.576
508.999	62.887
512.982	141.202
516.964	478.519
520.944	1007.95
524.921	504.558
528.897	227.01
532.871	273.195
536.844	277.89
540.814	324.833
544.783	475.719
548.749	688.621
552.714	1577.74
556.677	3882.48
560.638	7182.05
564.597	4111.62
568.555	1674.56
572.511	774.679
576.464	467.493
580.416	324.589
584.366	198.447
588.315	206.084
592.261	243.183
596.206	131.612
600.148	165.177
604.089	181.999
608.028	186.978
611.965	343.456
615.901	182.885
619.834	212.263
623.766	231.59
627.696	247.811
631.624	261.156
635.551	299.324
639.475	676.438
643.398	1574.5
647.318	1326.5
651.237	613.44
655.155	421.015
659.07	161.188
662.984	155.775
666.895	632.329
670.805	333.006
674.713	50.63
678.62	9.197
682.524	74.676
686.427	130.027
690.328	77.274
694.227	15.596
698.124	12.619
702.02	49.271
705.913	62.085
709.805	34.76
713.695	17.654
717.584	5.222
721.47	35.941
725.355	27.105
729.238	23.969
733.119	70.73
736.998	23.63
740.876	63.118
744.752	8.766
748.626	71.566
752.498	123.969
756.368	17.52
760.237	33.792
764.104	97.901
767.969	139.597
771.832	61.277
775.693	19.946
779.553	6.604
783.411	0.233
787.267	109.83
791.122	65.443
794.974	41.055
798.825	37.67
802.674	31.295
806.522	78.941
810.367	83.595
814.211	50.26
818.053	126.958
821.893	47.68
825.732	67.42
829.568	269.064
833.403	153.708
837.236	239.411
841.068	331.143
844.898	443.175
848.726	614.423
852.552	789.085
856.376	979.956
860.199	767.542
864.02	474.683
867.839	342.38
871.656	528.111
875.472	435.333
879.286	519.97
883.098	332.44
886.909	414.474
890.717	500.85
894.524	569.648
898.33	789.463
902.133	946.57
905.935	1259.94
909.735	1655.39
913.533	2290.54
917.33	3586.04
921.124	5420.72
924.918	7411.5
928.709	10170.4
932.499	17793.3
936.286	29098.4
940.073	19546.8
943.857	8991.14
947.64	4794.64
951.421	3003.15
955.2	2039.34
958.978	1483.07
962.753	1114.91
966.527	1054.06
970.3	931.53
974.071	800.744
977.84	661.115
981.607	804.551
985.372	819.875
989.136	546.016
992.898	489.979
996.659	476.33
1000.42	522.63
1004.17	532.92
1007.93	560.325
1011.68	488.855
1015.43	323.55
1019.18	373.368
1022.93	288.359
1026.68	190.5
1030.42	50.865
1034.17	149.376
1037.91	108.027
1041.65	164.832
1045.39	167.972
1049.12	142.338
1052.86	65.406
1056.59	15.316
1060.33	41.827
1064.06	60.1
1067.78	228.06
1071.51	127.821
1075.23	181.813
1078.96	66.899
1082.68	22.076
1086.4	12.629
1090.12	122.765
1093.83	171.231
1097.55	165.683
1101.26	193.16
1104.97	97.722
1108.68	54.374
1112.39	34.126
1116.1	39.025
1119.8	120.786
1123.5	188.573
1127.2	213.353
1130.9	5.89
1134.6	20.258
1138.3	2.945
1141.99	24.1
1145.69	36.792
1149.38	145.633
1153.07	262.502
1156.76	236.307
1160.44	317.234
1164.13	395.285
1167.81	265.128
1171.49	186.092
1175.17	159.011
1178.85	164.972
1182.52	216.048
1186.2	140.157
1189.87	114.112
1193.54	14.971
1197.21	76.701
1200.88	4.385
1204.55	62.955
1208.21	146.368
1211.88	138.888
1215.54	191.245
1219.2	197.854
1222.86	153.687
1226.51	62.553
1230.17	113.324
1233.82	98.152
1237.47	304.915
1241.12	305.277
1244.77	230.899
1248.42	210.499
1252.06	117.217
1255.71	49.036
1259.35	41.967
1262.99	28.984
1266.63	136.116
1270.26	304.22
1273.9	332.307
1277.53	304.174
1281.16	251.871
1284.8	41.342
1288.42	23.535
1292.05	55.121
1295.68	126.682
1299.3	107.652
1302.92	313.295
1306.55	340.359
1310.16	356.107
1313.78	286.354
1317.4	126.519
1321.01	86.202
1324.62	31.6
1328.24	51.57
1331.85	133.472
1335.45	215.509
