Measurement: Raman, 514 nm, ccw, Raman Data Processed
Mineral: Tremolite
Rruff sample: R050173
Ideal chemistry: [box]Ca_2_Mg_5_Si_8_O_22_(OH)_2_
Locality: Fort Dauphin, Madagascar
Source: Marcus Origlieri
Description: Mass of colorless acicular crystals
Measured chemistry: [box]Ca_2.00_Mg_5.00_Si_8.00_O_22_(OH)_2_
Pin_id: L00398
Orientation: Laser parallel to (1 0 1). Fiducial mark perpendicular to laser is parallel to b [0 1 0]
Raman shift (cm-1)	intensity
86.978	0
91.166	27.952
95.353	128.767
99.538	23.932
103.72	90.572
107.901	179.298
112.079	612.604
116.256	1818.44
120.43	1787.34
124.602	924.101
128.772	548.097
132.94	289.674
137.106	261.806
141.27	340.351
145.432	268.85
149.592	357.216
153.749	989.41
157.905	3897.91
162.059	3983.14
166.21	1505.49
170.36	885.37
174.507	4474.13
178.652	6993.15
182.796	1597.36
186.937	356.178
191.076	323.579
195.213	270.11
199.349	206.503
203.482	251.117
207.613	571.151
211.742	1483.21
215.869	3638.15
219.994	12879.8
224.117	16110.7
228.237	15530.7
232.356	21969.9
236.473	9138.44
240.588	2316.39
244.701	2634.06
248.811	7051.39
252.92	4824.41
257.027	1497.45
261.131	869.07
265.234	667.414
269.334	42.931
273.433	173.301
277.53	15.239
281.624	173.695
285.717	484.049
289.807	164.694
293.896	156.383
297.982	240.084
302.067	1073.33
306.149	696.131
310.23	808.758
314.308	293.022
318.385	112.402
322.459	8.45
326.532	30.321
330.602	225.877
334.671	345.154
338.737	585.723
342.802	2003.95
346.864	3358.08
350.925	5629.93
354.983	3619.19
359.04	2246.4
363.094	3550.86
367.147	9224.98
371.197	8202.36
375.246	3780.16
379.293	2097.51
383.337	1674.55
387.38	3233.08
391.421	10041.8
395.459	10900.3
399.496	3130.24
403.531	1599.79
407.564	1949.56
411.594	5016.57
415.623	8302.2
419.65	4606.85
423.675	1721.05
427.698	1004.19
431.719	1855.96
435.738	3376.6
439.755	1034.86
443.77	269.257
447.783	130.453
451.795	226.51
455.804	133.486
459.811	751.216
463.816	1089.01
467.82	516.083
471.821	242.706
475.821	67.237
479.818	114.287
483.814	611.963
487.808	320.979
491.799	154.522
495.789	15.374
499.777	25.867
503.763	298.949
507.747	661.662
511.729	1744.06
515.709	2516.18
519.687	2688.05
523.663	2589.76
527.638	4201.28
531.61	2972.55
535.581	1253.59
539.549	394.361
543.516	184.879
547.48	85.099
551.443	24.989
555.404	5.618
559.363	6.733
563.32	38.261
567.275	49.77
571.228	117.432
575.18	215.383
579.129	231.783
583.076	218.49
587.022	134.872
590.966	30.986
594.907	7.177
598.847	123.396
602.785	42.244
606.721	29.419
610.655	15.766
614.588	112.426
618.518	156.896
622.446	212.74
626.373	346.127
630.298	382.275
634.22	592.886
638.141	763.393
642.06	1098.77
645.977	1816.01
649.892	3070.09
653.806	3965.09
657.717	4006.41
661.627	5824.21
665.534	11619.1
669.44	29758
673.344	47642.9
677.246	26625.7
681.146	11092.5
685.045	6589.65
688.941	6238.16
692.836	4648.95
696.728	2548.71
700.619	1535.94
704.508	1207.13
708.395	1159.81
712.28	1077.66
716.164	654.747
720.045	640.414
723.925	558.074
727.802	506.543
731.678	705.987
735.552	985.898
739.424	2114.06
743.295	1650.73
747.163	1856.03
751.03	2189.46
754.895	1158.81
758.758	550.343
762.619	313.993
766.478	256.893
770.335	278.836
774.191	183.882
778.044	38.653
781.896	26.478
785.746	307.928
789.594	182.105
793.441	46.065
797.285	10.25
801.128	3.09
804.969	16.119
808.808	58.849
812.645	58.876
816.48	92.951
820.314	15.423
824.145	116.13
827.975	127.756
831.803	68.303
835.629	51.578
839.454	108.165
843.276	62.43
847.097	66.604
850.916	94.553
854.733	16.108
858.548	37.92
862.362	99.976
866.173	37.775
869.983	5.408
873.791	59.725
877.597	70.133
881.402	22.791
885.204	25.914
889.005	0.725
892.804	167.162
896.601	163.428
900.397	299.529
904.19	425.488
907.982	551.363
911.772	687.109
915.56	582.723
919.347	1152.71
923.131	2553.27
926.914	5808.17
930.695	7391.48
934.474	3935.13
938.252	2109.15
942.027	2252.41
945.801	3655.04
949.573	2415.52
953.344	1290.44
957.112	788.252
960.879	367.242
964.644	316.742
968.407	365.65
972.168	275.574
975.928	215.441
979.686	298.201
983.442	332.848
987.196	320.193
990.949	333.701
994.699	367.688
998.448	489.393
1002.2	706.559
1005.94	877.93
1009.68	1248.87
1013.43	1889.69
1017.17	3722.75
1020.9	5265.93
1024.64	10137.4
1028.38	16199.2
1032.11	8573.85
1035.84	3325.34
1039.57	2067.82
1043.3	1730.78
1047.02	1643.95
1050.75	2856.83
1054.47	6049.1
1058.19	13960.9
1061.91	10872.6
1065.63	5614.54
1069.34	5185.39
1073.06	3165.56
1076.77	1665.08
1080.48	1564.09
1084.19	3921.86
1087.89	3440.36
1091.6	1349.61
1095.3	696.303
1099.01	524.133
1102.7	421.521
1106.4	528.189
1110.1	24.344
1113.8	259.881
1117.49	373.709
1121.18	537.547
1124.87	190.875
1128.56	82.512
1132.24	13.828
1135.93	9.744
1139.61	22.428
1143.29	120.252
1146.97	68.328
1150.65	305.672
1154.32	190.488
1158	181.047
1161.67	19.951
1165.34	18.795
1169.01	245.979
1172.67	305.555
1176.34	192.727
1180	246.973
1183.67	243.412
1187.33	124.137
1190.98	240.691
1194.64	162.742
1198.3	349.568
1201.95	363.875
1205.6	379.566
1209.25	332.387
1212.9	223.5
1216.55	342.857
1220.19	450.992
1223.84	400.418
1227.48	644.035
1231.12	356.996
1234.76	412.699
1238.39	595.961
1242.03	225.887
1245.66	334.914
1249.29	441.803
1252.92	334.656
1256.55	376.965
1260.17	598.227
1263.8	491.482
1267.42	560.287
1271.04	639.105
1274.66	202.27
1278.28	334.781
1281.9	334.059
1285.51	241.586
1289.13	29.234
1292.74	219.045
1296.35	151.416
1299.95	148.447
1303.56	74.285
1307.16	128.527
1310.77	108.74
1314.37	37.93
1317.97	44.113
1321.57	170.402
1325.16	120.854
1328.76	49.973
1332.35	137.693
1335.94	44.307
1339.53	118.439
1343.12	117.869
1346.71	243.217
1350.29	182.908
1353.87	370.398
1357.45	55.184
1361.03	339.818
1364.61	113.08
1368.19	286.457
1371.76	267.463
1375.34	5.691
1378.91	12.463
1382.48	127.256
1386.05	111.277
1389.61	63.275
1393.18	8.127
1396.74	360.463
1400.3	295.979
1403.86	365.73
1407.42	264.395
1410.98	237.494
1414.53	310.703
1418.08	222.688
1421.64	95.973
1425.19	140.02
1428.73	220.453
1432.28	262.076
1435.83	94.752
1439.37	344.871
1442.91	4.633
1446.45	200.098
1449.99	348.125
1453.53	302.684
1457.06	303.957
1460.6	381.535
1464.13	596.59
1467.66	144.742
1471.19	458.82
1474.72	318.621
1478.24	424.691
1481.77	405.379
1485.29	560.617
1488.81	412.211
1492.33	387.445
1495.85	141.266
1499.36	444.215
1502.88	170.551
1506.39	69.828
1509.9	113.738
1513.41	192.043
1516.92	278.215
1520.42	252.117
1523.93	357.801
