Measurement: Raman, 514 nm, ccw, Raman Data Processed
Mineral: Tremolite
Rruff sample: R050173
Ideal chemistry: [box]Ca_2_Mg_5_Si_8_O_22_(OH)_2_
Locality: Fort Dauphin, Madagascar
Source: Marcus Origlieri
Description: Mass of colorless acicular crystals
Measured chemistry: [box]Ca_2.00_Mg_5.00_Si_8.00_O_22_(OH)_2_
Pin_id: L00389
Orientation: Laser parallel to a* (1 0 0). Fiducial mark perpendicular to laser is parallel to b [0 1 0]
Raman shift (cm-1)	intensity
93.958	0
98.143	296.312
102.326	161.324
106.508	159.529
110.687	797.312
114.864	1918.54
119.039	2264.81
123.211	3897.34
127.382	3048.06
131.551	1000.78
135.718	582.23
139.882	839.789
144.045	646.221
148.205	543.688
152.364	1113.99
156.52	2417.86
160.674	1942.68
164.826	489.127
168.977	489.35
173.125	2182.21
177.271	3413.72
181.415	823.184
185.557	859.693
189.697	1470.82
193.835	1975.02
197.97	2682.59
202.104	3207.67
206.236	3310.5
210.366	3371.94
214.493	3710.94
218.619	6528.7
222.742	7553.41
226.864	6547.31
230.984	9620.44
235.101	4352.09
239.216	1202.6
243.33	1202.13
247.441	3170.79
251.551	2358.53
255.658	765.424
259.763	1080.37
263.867	819.652
267.968	67.348
272.067	73.99
276.164	301.232
280.26	244.932
284.353	188.805
288.444	30.27
292.533	123.541
296.62	41.734
300.705	605.662
304.789	398.34
308.87	399.4
312.949	288.65
317.026	276.074
321.101	431.701
325.174	335.656
329.246	428.045
333.315	288.982
337.382	640.781
341.447	1181.46
345.51	1602.09
349.571	2516.17
353.63	2195.69
357.688	1442.43
361.743	1567.33
365.796	4091.17
369.847	4073.82
373.897	2225.17
377.944	1486.98
381.989	1218.99
386.032	1881.47
390.074	5414.56
394.113	5939.41
398.151	2480.22
402.186	1410.69
406.219	1470.36
410.251	2640.03
414.28	4283.62
418.308	2980.22
422.334	1544.2
426.357	1179.5
430.379	1355.15
434.399	1950.75
438.416	1307.78
442.432	656.438
446.446	1004.63
450.458	1661.6
454.468	3247.57
458.476	8768.26
462.482	13497.5
466.486	7379.16
470.488	3244.66
474.488	1957.67
478.486	1160.09
482.482	1143.69
486.477	958.846
490.469	704.176
494.459	510.574
498.448	489.342
502.434	253.49
506.419	778.455
510.402	952.768
514.383	1196.53
518.361	1179.87
522.338	1042.66
526.313	1885.23
530.286	1687.31
534.257	509.029
538.227	530.271
542.194	300.996
546.159	91.205
550.123	20.799
554.084	169.734
558.044	48.047
562.001	36.203
565.957	53.445
569.911	59.445
573.863	166.52
577.813	162.492
581.761	107.377
585.707	241.758
589.651	75.73
593.594	50.459
597.534	93.42
601.473	36.615
605.409	81.969
609.344	36.818
613.277	73.076
617.208	238.898
621.137	76.709
625.064	128.346
628.99	185.4
632.913	320.07
636.834	204.148
640.754	566.723
644.672	719.885
648.588	1162.75
652.502	1834.12
656.414	2014.72
660.324	2863.45
664.232	5544.32
668.138	13480.6
672.043	23136.2
675.946	13099.2
679.846	5471.86
683.745	3056.2
687.642	2447.23
691.538	2190.84
695.431	1431.84
699.322	1824.16
703.212	659.016
707.1	587.92
710.985	403.33
714.869	327.49
718.751	447.27
722.632	470.801
726.51	581.311
730.386	602.211
734.261	575.309
738.134	1081.36
742.005	744.076
745.874	1015.49
749.741	1223.8
753.607	713.973
757.47	169.133
761.332	429.154
765.192	28.008
769.05	336.631
772.906	392.055
776.76	257.475
780.613	193.447
784.463	85.289
788.312	224.232
792.159	423.213
796.004	223.102
799.847	292.684
803.689	421.975
807.528	470.992
811.366	279.783
815.202	158.408
819.036	42.861
822.868	54.971
826.699	12.967
830.527	240.484
834.354	126.822
838.179	3.326
842.002	30.602
845.824	15.188
849.643	120.146
853.461	125.068
857.277	139.658
861.091	384.018
864.903	188.178
868.713	211.945
872.522	265.293
876.329	108.582
880.134	141.238
883.937	204.332
887.739	266.609
891.538	209.211
895.336	81.535
899.132	353.629
902.926	555.656
906.718	207.613
910.509	228.75
914.298	620.129
918.085	871.145
921.87	1270.64
925.653	2620.21
929.435	3700.38
933.215	2066.68
936.993	1135.35
940.769	1394.34
944.544	1813.32
948.316	1092.56
952.087	741.625
955.856	842.223
959.623	522.066
963.389	309.75
967.153	218.27
970.915	381.027
974.675	263.352
978.433	185.852
982.19	328.609
985.945	316.223
989.698	275.34
993.449	505.703
997.199	514.195
1000.95	486.957
1004.69	655.785
1008.44	560.23
1012.18	1175.8
1015.92	1530.19
1019.66	2266.93
1023.4	4445.28
1027.13	7149.25
1030.87	4009.93
1034.6	1904.65
1038.33	1561.23
1042.06	1421.19
1045.78	1544.83
1049.51	1578.98
1053.23	2904.7
1056.95	6667.53
1060.67	5920
1064.39	3222.9
1068.11	2838.41
1071.82	1690.81
1075.53	953.332
1079.24	1014.84
1082.95	865.648
1086.66	675.938
1090.37	455.938
1094.07	375.715
1097.77	625.156
1101.47	24.145
1105.17	162.441
1108.87	80.324
1112.56	177.738
1116.26	515.996
1119.95	650.98
1123.64	147.031
1127.33	57.871
1131.01	87.637
1134.7	372.887
1138.38	32.176
1142.06	351.363
1145.74	64.387
1149.42	169.469
1153.1	403.355
1156.77	306.484
1160.44	558.879
1164.12	440.879
1167.79	62.973
1171.45	308.391
1175.12	159.637
1178.78	100.43
1182.45	301.082
1186.11	411.512
1189.77	271.734
1193.42	341.746
1197.08	501.535
1200.73	621.188
1204.38	460.773
1208.04	740.191
1211.68	635.645
1215.33	458.992
1218.98	307.312
1222.62	682.379
1226.26	596.121
1229.9	539.297
1233.54	705.238
1237.18	326.711
1240.82	701.484
1244.45	506.605
1248.08	402.027
1251.71	331.871
1255.34	357.66
1258.97	244.379
1262.59	814.105
1266.22	403.535
1269.84	337.93
1273.46	727.652
1277.08	608.66
1280.69	58.426
1284.31	137.914
1287.92	747.172
1291.53	524.832
1295.14	376.957
1298.75	508.453
1302.36	568.586
1305.96	339.594
1309.57	226.277
1313.17	2.68
