Measurement: Raman, 514 nm, ccw, Raman Data Processed
Mineral: Tremolite
Rruff sample: R050173
Ideal chemistry: [box]Ca_2_Mg_5_Si_8_O_22_(OH)_2_
Locality: Fort Dauphin, Madagascar
Source: Marcus Origlieri
Description: Mass of colorless acicular crystals
Measured chemistry: [box]Ca_2.00_Mg_5.00_Si_8.00_O_22_(OH)_2_
Pin_id: L00129
Orientation: Laser parallel to -b* (0 -1 0). Fiducial mark perpendicular to laser is parallel to -c [0 0 -1]
Raman shift (cm-1)	intensity
100.932	0
105.114	123.11
109.294	91.357
113.472	1137.42
117.647	3016.76
121.821	6448.42
125.992	4254.83
130.162	1290.87
134.329	182.451
138.494	196.116
142.657	209.767
146.819	24.286
150.978	2.521
155.135	51.311
159.29	594.35
163.443	359.373
167.593	87.471
171.742	1752.11
175.889	9110.81
180.034	8399.73
184.176	1235.14
188.317	900.539
192.456	1102.17
196.592	1190.33
200.726	1524.27
204.859	1811.75
208.989	2048.42
213.118	2188.95
217.244	4401.73
221.368	11091.9
225.49	6771.78
229.611	3391.21
233.729	2799.76
237.845	997.419
241.959	274.247
246.071	620.532
250.181	1426.27
254.289	651.491
258.395	225.838
262.499	279.412
266.601	11.221
270.701	220.52
274.799	215.757
278.895	161.053
282.989	273.698
287.08	1446.17
291.17	1266.25
295.258	194.745
299.344	532.047
303.428	658.216
307.51	233.318
311.589	306.384
315.667	197.75
319.743	203.645
323.817	413.02
327.889	1241.55
331.958	2648.85
336.026	1238.01
340.092	1084.37
344.156	1610.86
348.218	1787.87
352.278	2277.97
356.336	1474.02
360.391	1669.07
364.445	4633.33
368.497	10966.8
372.547	5779.5
376.595	2083.82
380.641	1418.43
384.685	1466.5
388.727	3616.05
392.767	9080.06
396.805	5664.75
400.841	1873.85
404.875	1042.66
408.907	1238.74
412.937	2220.35
416.966	2650.65
420.992	1231.76
425.016	666.646
429.038	514.274
433.059	792.011
437.077	673.678
441.094	464.83
445.108	457.974
449.121	601.372
453.131	1175.14
457.14	2931.13
461.146	7352.89
465.151	7621.89
469.154	3463.3
473.155	1551.76
477.154	974.931
481.15	898.192
485.145	565.875
489.138	468.62
493.129	392.587
497.119	535.928
501.106	318.663
505.091	50.782
509.074	392.297
513.056	586.92
517.035	663.772
521.013	483.848
524.988	513.522
528.962	572.855
532.934	341.817
536.904	180.445
540.872	21.345
544.838	53.58
548.802	103.494
552.764	0.004
556.724	35.934
560.682	61.227
564.639	65.946
568.593	30.212
572.546	23.954
576.496	27.163
580.445	119.927
584.392	361.704
588.337	331.174
592.28	181.689
596.221	24.354
600.16	34.487
604.097	4.096
608.033	27.657
611.966	70.194
615.898	6.466
619.828	96.052
623.755	318.611
627.681	185.144
631.605	406.221
635.527	488.185
639.448	849.749
643.366	1310.88
647.283	2241.51
651.197	4210.54
655.11	4598.53
659.021	4646.55
662.93	6845
666.837	15143.5
670.742	37482.4
674.645	40872
678.546	18065
682.446	7701.76
686.344	4289.7
690.239	2748.55
694.133	2102.2
698.025	1445.81
701.916	1162.04
705.804	801.584
709.69	801.611
713.575	670.428
717.458	567.186
721.338	345.186
725.217	511.51
729.095	522.771
732.97	431.23
736.843	651.527
740.715	783.834
744.584	1008.65
748.452	1564.06
752.318	1549.62
756.182	834.785
760.045	361.316
763.905	356.494
767.764	42.311
771.621	227.486
775.475	52.73
779.329	89.037
783.18	205.561
787.029	22.957
790.877	90.027
794.722	106.773
798.566	63.203
802.408	69.221
806.249	24.768
810.087	97.92
813.923	55.014
817.758	79.684
821.591	74.332
825.422	18.566
829.251	27.727
833.079	55.674
836.904	88.875
840.728	117.381
844.55	5.189
848.37	13.404
852.188	227.916
856.005	248.912
859.82	129.775
863.633	150.453
867.444	39.039
871.253	81.324
875.06	141.537
878.866	141.604
882.67	81.535
886.472	221.336
890.272	100.988
894.07	130.439
897.867	109.707
901.662	88.807
905.455	307.779
909.246	276.627
913.035	365.355
916.823	393.992
920.608	821.102
924.392	1448.6
928.175	2914.98
931.955	2931.68
935.734	1354.27
939.511	1050.65
943.286	1266.84
947.059	1532.88
950.83	958.717
954.6	624.395
958.368	500.254
962.134	407.008
965.898	322.094
969.661	84.658
973.422	487.492
977.181	283.004
980.938	271.986
984.693	238.236
988.447	369.4
992.199	331.41
995.949	134.316
999.697	500.656
1003.44	537.201
1007.19	524.422
1010.93	658.924
1014.67	1035
1018.41	1409.71
1022.15	2845.4
1025.89	6963.04
1029.62	7871.07
1033.35	3098.81
1037.08	1557.59
1040.81	1213.86
1044.54	940.297
1048.27	1237.25
1051.99	1772.82
1055.71	4439.57
1059.43	8065.23
1063.15	4632.53
1066.87	4420.85
1070.58	4636.86
1074.3	2182.73
1078.01	1279.25
1081.72	926.207
1085.42	1583.36
1089.13	869.426
1092.84	505.199
1096.54	430.436
1100.24	476.615
1103.94	392.242
1107.64	608.027
1111.33	262.824
1115.03	396.609
1118.72	469.537
1122.41	253.994
1126.1	8.814
1129.79	145.986
1133.47	107.273
1137.15	9.986
1140.84	130.328
1144.52	300.689
1148.19	87.07
1151.87	8.697
1155.55	249.199
1159.22	231.951
1162.89	282.602
1166.56	204.971
1170.23	247.951
1173.9	53.24
1177.56	164.217
1181.22	92.455
1184.89	146.096
1188.55	393.873
1192.2	242.625
1195.86	408.111
1199.52	434.264
1203.17	414.951
1206.82	463.352
1210.47	332.564
1214.12	433.883
1217.76	522.01
1221.41	279.391
1225.05	418.375
1228.69	326.438
1232.33	512.74
1235.97	507.127
1239.6	251.283
1243.24	261.369
1246.87	383.668
1250.5	283.355
1254.13	481.625
1257.76	566.697
1261.38	352.072
1265.01	418.785
1268.63	214.141
1272.25	187.004
1275.87	310.697
1279.49	299.086
1283.1	412.775
1286.72	96.762
1290.33	49.703
1293.94	81.404
1297.55	151.545
1301.16	172.164
1304.76	252.234
1308.37	210.543
1311.97	235.805
1315.57	48.59
1319.17	123.176
1322.77	424.672
1326.36	514.555
1329.95	303.266
1333.55	8.77
1337.14	68.547
1340.73	164.531
1344.32	260.953
1347.9	165.211
1351.48	508.965
1355.07	139.738
1358.65	209.336
1362.23	380.055
1365.8	18.461
1369.38	436.77
1372.95	162.73
1376.53	179.004
1380.1	94.93
1383.67	450.094
1387.23	466.484
1390.8	646.816
1394.36	746.895
1397.93	455.895
1401.49	488.715
1405.05	350.965
1408.61	248.691
1412.16	51.895
1415.71	517.691
1419.27	328.805
1422.82	755.766
1426.37	414.18
1429.92	841.742
1433.46	659.805
1437.01	629.066
1440.55	487.426
1444.09	564.719
1447.63	446.926
1451.17	693.895
1454.71	251.824
1458.24	895.879
1461.78	800.406
1465.31	489.023
1468.84	731.074
1472.37	689.848
1475.89	882.5
1479.42	863.336
1482.94	749.863
1486.46	280.137
1489.98	470.848
1493.5	492.004
1497.02	293.82
1500.53	267.41
1504.05	504.777
1507.56	426.195
1511.07	291.852
1514.58	478.754
1518.09	286.559
1521.59	176.066
1525.1	436.809
