Measurement: Raman, 514 nm, ccw, Raman Data Processed
Mineral: Tremolite
Rruff sample: R050167
Ideal chemistry: [box]Ca_2_Mg_5_Si_8_O_22_(OH)_2_
Locality: Hunza Valley, Afghanistan
Source: Marcus Origlieri
Description: Green tabular crystals
Measured chemistry: ([box]_0.90_Na_0.10_)(Ca_0.98_Mg_0.01_Fe^2+^_0.01_)_2_(Mg_0.94_Al_0.06_)_5_(Si_0.95_Al_0.05_)_8_O_22_((OH)_0.98_F_0.02_)_2_
Pin_id: L00522
Orientation: Laser parallel to -a* (-1 0 0). Fiducial mark perpendicular to laser is parallel to b [0 1 0]
Raman shift (cm-1)	intensity
84.529	0
88.728	6.976
92.926	53.979
97.121	188.157
101.314	456.388
105.505	1114.9
109.694	2179.06
113.881	4470.73
118.066	9366.84
122.249	14306.9
126.43	9051.62
130.608	3259.38
134.785	1203.36
138.959	514.095
143.131	284.29
147.301	68.733
151.469	88.783
155.635	76.678
159.799	768.953
163.961	840.873
168.121	955.257
172.278	3041.03
176.434	7907.18
180.587	8246.94
184.739	3527.41
188.888	1444.69
193.035	786.842
197.18	518.045
201.324	302.375
205.465	474.255
209.603	969.852
213.74	2020.19
217.875	3933.1
222.008	6258.01
226.139	4970.47
230.267	4210.45
234.394	4771.93
238.518	3250.89
242.641	2000.29
246.761	2338.2
250.879	3200.8
254.996	2259.32
259.11	1160.89
263.222	654.327
267.332	308.18
271.44	152.123
275.546	78.006
279.65	130.801
283.752	350.455
287.852	1043.69
291.95	1192.73
296.046	878.429
300.14	1073.13
304.231	1324.17
308.321	733.549
312.409	427.675
316.495	274.464
320.578	368.769
324.66	820.58
328.739	1806.72
332.817	2533.16
336.892	1656.89
340.966	1256.08
345.037	1123.52
349.107	1068.22
353.174	1108.03
357.24	1132.06
361.303	1657.3
365.365	3455.74
369.424	6065.36
373.481	5533.15
377.537	3738.1
381.59	3182.19
385.642	4197.41
389.691	7721.73
393.738	12850.2
397.784	9518.72
401.827	4191.03
405.868	2573.53
409.908	2755.28
413.945	4135.32
417.98	4647.56
422.014	3209.82
426.045	1776.26
430.075	1029.84
434.102	769.565
438.127	485.157
442.151	175.767
446.172	2.993
450.192	17.439
454.209	1.983
458.225	19.003
462.238	5.015
466.25	15.04
470.259	54.244
474.267	11.625
478.273	63.914
482.276	247.489
486.278	650.045
490.278	554.561
494.276	222.042
498.271	12.488
502.265	122.201
506.257	66.41
510.247	35.832
514.235	165.868
518.221	132.812
522.205	109.658
526.187	104.402
530.167	135.04
534.145	193.565
538.122	196.975
542.096	167.271
546.068	132.452
550.039	157.531
554.007	145.505
557.973	111.409
561.938	45.213
565.901	2.137
569.861	26.254
573.82	105.43
577.777	140.439
581.732	216.287
585.685	241.975
589.636	116.496
593.585	67.848
597.532	33.969
601.477	26.323
605.42	74.292
609.361	55.382
613.301	86.192
617.238	187.084
621.174	284.057
625.108	363.306
629.039	513.216
632.969	674.28
636.897	994.769
640.823	1374.39
644.747	1933.28
648.669	2807.1
652.589	4098.82
656.508	5834.33
660.424	8755.05
664.339	15286.8
668.251	30108.1
672.162	50358.3
676.071	44798.4
679.978	23508.4
683.883	11738.1
687.786	6707.77
691.687	4404.25
695.586	3127.57
699.484	2346.53
703.379	1806.42
707.273	1586
711.165	1369.08
715.055	1168.12
718.943	1129.02
722.829	1038.24
726.713	1009.64
730.595	1064.1
734.476	1198.77
738.354	1447.49
742.231	1779.07
746.106	2064.52
749.978	2267
753.849	1753.3
757.719	1128.3
761.586	691.95
765.451	381.482
769.315	247.515
773.177	233.973
777.036	168.684
780.894	132.368
784.75	3.079
788.605	94.771
792.457	99.43
796.307	48.021
800.156	50.525
804.003	17.04
807.848	23.708
811.691	28.527
815.532	54.804
819.371	59.285
823.209	135.917
827.045	124.53
830.878	185.109
834.71	212.654
838.54	203.17
842.369	140.658
846.195	97.121
850.02	17.432
853.842	6.018
857.663	3.642
861.482	7.687
865.299	49.063
869.115	56.934
872.928	96.906
876.74	41.984
880.55	46.948
884.358	91.902
888.164	154.905
891.969	119.933
895.771	201.033
899.572	293.229
903.371	331.507
907.168	357.882
910.963	520.532
914.757	617.48
918.548	893.684
922.338	1475.06
926.126	2396.53
929.912	3335.03
933.697	2686.56
937.479	1647.74
941.26	973.3
945.039	842.869
948.816	678.444
952.591	576.647
956.365	354.459
960.136	306.111
963.906	259.426
967.674	244.989
971.441	302.607
975.205	298.217
978.968	292.054
982.729	339.631
986.488	251.452
990.245	321.231
994	400.763
997.754	544.041
1001.51	721.158
1005.26	961.031
1009	1224.6
1012.75	1522.14
1016.5	1625.25
1020.24	2005.44
1023.98	2829.16
1027.72	4031.85
1031.46	3932.93
1035.19	2535.04
1038.93	1878.34
1042.66	1604.24
1046.39	1683.99
1050.12	1956.66
1053.85	2338.01
1057.57	2778.68
1061.29	2931.89
1065.02	3259.92
1068.74	3762.98
1072.45	3114.56
1076.17	1908.97
1079.88	1119.57
1083.6	795.811
1087.31	482.194
1091.02	473.485
1094.72	370.896
1098.43	312.775
1102.13	406.462
1105.84	335.153
1109.54	251.042
1113.24	246.108
1116.93	268.03
1120.63	231.121
1124.32	213.258
1128.01	151.313
1131.7	185.792
1135.39	136.287
1139.08	165.533
1142.76	59.252
1146.45	66.887
1150.13	98.506
1153.81	134.393
1157.48	49.298
1161.16	52.587
1164.84	0.838
1168.51	39.64
1172.18	8.312
1175.85	15.622
1179.52	39.48
1183.18	64.477
1186.85	3.061
1190.51	15.192
1194.17	8.406
1197.83	94.347
1201.48	27.852
1205.14	7.389
1208.79	8.335
1212.44	28.086
1216.09	55.056
1219.74	81.78
1223.39	76.716
1227.03	7.059
1230.68	69.771
1234.32	74.304
1237.96	59.54
1241.6	146.901
1245.23	172.933
1248.87	36.895
1252.5	61.568
1256.13	150.339
1259.76	116.618
1263.39	55.071
1267.02	154.558
1270.64	176.181
1274.26	219.943
1277.88	207.925
1281.5	262.441
1285.12	57.479
1288.74	88.481
1292.35	134.986
1295.96	56.582
1299.57	76.905
1303.18	159.307
1306.79	194.963
1310.4	132.106
1314	187.883
1317.6	168.601
1321.2	135.047
1324.8	111.886
1328.4	134.862
1331.99	163.621
1335.59	166.909
1339.18	144.915
1342.77	211.569
1346.36	201.572
1349.95	196.235
1353.53	12.623
1357.12	27.649
1360.7	84.17
1364.28	16.495
1367.86	38.255
1371.44	114.109
1375.01	112.914
1378.59	186.114
1382.16	125.045
1385.73	72.269
1389.3	33.364
1392.87	18.944
1396.43	1.644
1399.99	69.411
1403.56	30.028
1407.12	98.206
1410.68	198.142
1414.23	153.57
1417.79	142.924
1421.34	130.263
1424.9	89.891
1428.45	74.847
1431.99	50.081
1435.54	23.962
1439.09	173.019
1442.63	133.346
1446.17	304.669
1449.71	399.28
1453.26	416.931
1456.79	407.065
1460.33	323.092
1463.86	229.298
1467.39	202.807
1470.92	152.279
1474.45	26.169
1477.98	86.972
1481.51	62.037
1485.03	247.431
1488.56	183.051
1492.08	232.925
1495.6	289.296
1499.11	224.793
1502.63	152.856
1506.14	195.024
1509.66	106.055
1513.17	0.146
