Measurement: Raman, 514 nm, ccw, Raman Data Processed
Mineral: Tremolite
Rruff sample: R050167
Ideal chemistry: [box]Ca_2_Mg_5_Si_8_O_22_(OH)_2_
Locality: Hunza Valley, Afghanistan
Source: Marcus Origlieri
Description: Green tabular crystals
Measured chemistry: ([box]_0.90_Na_0.10_)(Ca_0.98_Mg_0.01_Fe^2+^_0.01_)_2_(Mg_0.94_Al_0.06_)_5_(Si_0.95_Al_0.05_)_8_O_22_((OH)_0.98_F_0.02_)_2_
Pin_id: L00357
Orientation: Laser parallel to b* (0 1 0). Fiducial mark perpendicular to laser is parallel to c [0 0 1]
Raman shift (cm-1)	intensity
47.263	0
51.471	5.999
55.677	71.122
59.882	247.444
64.084	837.41
68.284	1227.04
72.482	1850.57
76.678	2078.74
80.872	885.203
85.064	365.612
89.254	115.756
93.442	84.374
97.628	253.044
101.812	525.656
105.994	662.83
110.174	1303.55
114.351	2659.37
118.527	3438.04
122.701	5805.99
126.873	4978.42
131.042	2017
135.21	776.672
139.376	253.545
143.539	20.163
147.701	116.433
151.861	72.878
156.018	21.381
160.174	168.502
164.327	290.526
168.479	517.207
172.628	1743.01
176.776	6180.76
180.922	9287.95
185.065	4827.45
189.207	1809.94
193.346	879.329
197.484	593.153
201.619	398.425
205.753	446.765
209.884	743.936
214.014	1608.83
218.141	3854.86
222.267	7988.01
226.391	8230.59
230.512	4748.93
234.632	3689.02
238.749	2693.62
242.865	1501.72
246.979	1266.67
251.09	1803.72
255.2	1685.25
259.308	999.159
263.414	531.616
267.517	336.923
271.619	190.038
275.719	101.451
279.817	136.73
283.913	378.347
288.007	989.064
292.099	1281.75
296.189	944.79
300.277	766.146
304.363	1064.04
308.447	897.332
312.529	596.669
316.609	369.473
320.687	465.346
324.764	672.591
328.838	1411.21
332.91	2524.51
336.981	1921.26
341.049	1347.79
345.116	1414.36
349.18	1512.12
353.243	1830.71
357.304	1793.68
361.362	2056.26
365.419	3909.91
369.474	7943.28
373.527	8647.46
377.578	5402.48
381.627	3112.16
385.674	2839.08
389.719	3734.68
393.762	6548.15
397.804	6506.6
401.843	3221.23
405.881	1632.88
409.916	1265.19
413.95	1689.68
417.981	2228.05
422.011	1834.13
426.039	979.848
430.065	522.146
434.089	361.198
438.111	347.013
442.131	274.521
446.149	176.752
450.166	100.914
454.18	52.582
458.193	51.488
462.203	29.477
466.212	37.304
470.219	27.042
474.224	10.433
478.227	65.713
482.228	6.92
486.227	130.873
490.224	152.555
494.22	37.118
498.213	62.41
502.205	66.288
506.194	40.675
510.182	48.359
514.168	150.51
518.152	336.13
522.134	434.578
526.114	440.89
530.093	420.99
534.069	399.95
538.044	269.739
542.017	190.365
545.987	174.828
549.956	126.127
553.923	84.302
557.889	14.338
561.852	40.291
565.813	4.166
569.773	24.937
573.731	2.629
577.686	133.178
581.64	155.608
585.593	272.898
589.543	221.054
593.491	123.099
597.438	106.046
601.382	71.886
605.325	24.825
609.266	9.405
613.205	89.688
617.142	198.992
621.078	238.06
625.011	332.278
628.943	411.029
632.872	695.346
636.8	901.377
640.726	1304.46
644.651	1930.76
648.573	3053.91
652.494	5006.18
656.412	6760.86
660.329	8083.54
664.244	10946.1
668.157	19309.2
672.069	36874.9
675.978	42115.8
679.886	24686.6
683.792	12087.4
687.696	6567.97
691.598	3984.5
695.498	2714.21
699.397	1960.89
703.293	1478.67
707.188	1274.07
711.081	1035.7
714.972	878.132
718.862	715.664
722.749	604.559
726.635	639.739
730.519	629.521
734.401	612.979
738.281	692.007
742.16	813.459
746.036	1034.56
749.911	1369.38
753.784	1189.37
757.655	751.517
761.525	456.093
765.392	297.537
769.258	199.558
773.122	107.941
776.984	78.617
780.844	43.198
784.703	11.668
788.56	22.079
792.415	90.429
796.268	37.736
800.119	66.894
803.969	38.1
807.816	74.768
811.662	9.983
815.506	88.319
819.349	141.614
823.189	115.89
827.028	150.145
830.865	162.3
834.7	210.355
838.534	306.313
842.365	255.172
846.195	162.93
850.023	116.588
853.85	69.142
857.674	50.586
861.497	56.894
865.318	23.977
869.137	40.05
872.955	107.41
876.77	39.064
880.584	34.949
884.396	80.94
888.207	6.672
892.015	112.283
895.822	94.844
899.627	143.368
903.43	145.896
907.232	211.432
911.032	305.891
914.83	306.325
918.626	550.693
922.42	909.98
926.213	1430.94
930.004	2151.64
933.793	2081.64
937.581	1341.99
941.366	922.384
945.15	1017.34
948.932	1091.18
952.713	983.666
956.491	646.333
960.268	495.294
964.044	373.281
967.817	270.654
971.589	290.706
975.359	304.27
979.127	356.106
982.893	408.942
986.658	407.197
990.421	320.641
994.183	416.499
997.942	557.218
1001.7	797.925
1005.46	984.26
1009.21	1324.08
1012.96	1617.05
1016.71	1936.65
1020.46	2221.37
1024.21	3035.37
1027.96	4614.6
1031.7	5650.22
1035.44	3961.23
1039.18	2740.76
1042.92	2252.07
1046.66	2365.18
1050.39	2867
1054.13	3579.67
1057.86	4600.93
1061.59	5105.61
1065.32	4556.77
1069.05	5127.17
1072.77	4447.07
1076.49	2640.01
1080.22	1623.56
1083.94	1027.88
1087.65	654.39
1091.37	599.821
1095.09	482.298
1098.8	419.389
1102.51	377.425
1106.22	361.679
1109.93	281.227
1113.63	264.405
1117.34	254.46
1121.04	253.119
1124.74	321.12
1128.44	221.447
1132.14	105.131
1135.84	124.447
1139.53	56.925
1143.22	45.622
1146.91	10.819
1150.61	61.239
1154.29	74.733
1157.98	25.424
1161.66	327.303
1165.35	35.278
1169.03	75.119
1172.71	57.722
1176.38	69.031
1180.06	76.171
1183.73	157.088
1187.41	79.045
1191.08	9.606
1194.75	13.216
1198.41	109.755
1202.08	17.247
1205.74	53.217
1209.41	87.224
1213.07	77.87
1216.73	114.926
1220.38	87.017
1224.04	47.408
1227.69	65.555
1231.35	70.021
1235	91.13
1238.65	216.312
1242.3	290.342
1245.94	260.327
1249.59	199.946
1253.23	141.555
1256.87	90.873
1260.51	165.855
1264.15	173.775
1267.78	236.008
1271.42	256.211
1275.05	384.537
1278.68	379.562
1282.31	165.809
1285.94	124.574
1289.56	75.273
1293.19	72.265
1296.81	122.234
1300.43	167.521
1304.05	167.473
1307.67	81.587
1311.29	245.948
1314.9	157.054
1318.52	102.611
1322.13	131.092
1325.74	77.398
1329.34	184.329
1332.95	149.419
1336.56	241.117
1340.16	238.198
1343.76	293.771
1347.36	238.702
1350.96	80.232
1354.56	112.775
1358.15	16.625
1361.74	5.86
1365.34	134.954
1368.93	102.209
1372.52	19.412
1376.1	106.245
1379.69	58.631
1383.27	126.299
1386.85	163.045
1390.43	81.688
1394.01	67.695
1397.59	55.139
1401.17	17.779
1404.74	278.31
1408.31	266.859
1411.88	305.78
1415.45	339.256
1419.02	274.256
1422.59	167.952
1426.15	189.068
1429.71	95.482
1433.28	164.706
1436.84	35.877
1440.39	119.41
1443.95	259.273
1447.5	429.964
1451.06	371.804
1454.61	535.639
1458.16	330.589
1461.71	345.922
1465.26	222.67
1468.8	189.171
1472.34	83.814
1475.89	117.114
1479.43	223.556
1482.97	227.445
1486.5	227.046
1490.04	517.308
1493.57	397.779
1497.11	455.854
1500.64	333.871
1504.17	302.729
1507.69	214.61
1511.22	57.983
1514.74	3.292
1518.27	0
