Measurement: Raman, 514 nm, ccw, Raman Data Processed
Mineral: Tremolite
Rruff sample: R050173
Ideal chemistry: [box]Ca_2_Mg_5_Si_8_O_22_(OH)_2_
Locality: Fort Dauphin, Madagascar
Source: Marcus Origlieri
Description: Mass of colorless acicular crystals
Measured chemistry: [box]Ca_2.00_Mg_5.00_Si_8.00_O_22_(OH)_2_
Pin_id: L00129
Orientation: Laser parallel to -b* (0 -1 0). Fiducial mark perpendicular to laser is parallel to -c [0 0 -1]
Raman shift (cm-1)	intensity
82.787	0
86.978	193.555
91.166	234.222
95.353	10.251
99.538	23.662
103.72	140.469
107.901	218.788
112.079	922.945
116.256	2318.32
120.43	5111.08
124.602	5241.03
128.772	2670.16
132.94	801.438
137.106	501.338
141.27	498.091
145.432	454.903
149.592	554.614
153.749	3441.82
157.905	11578.3
162.059	5698.65
166.21	1363.29
170.36	3042.81
174.507	14892.8
178.652	16637.3
182.796	3650.3
186.937	1781.44
191.076	2117.04
195.213	2637.5
199.349	3389.73
203.482	3909.09
207.613	4134.94
211.742	4586.04
215.869	8106.77
219.994	22036.9
224.117	17566.3
228.237	4345
232.356	1985.03
236.473	773.515
240.588	346.534
244.701	742.1
248.811	1631.18
252.92	794.541
257.027	270.019
261.131	449.955
265.234	250.795
269.334	155.111
273.433	189.894
277.53	175.129
281.624	134.783
285.717	304.161
289.807	668.257
293.896	374.599
297.982	1263.02
302.067	2301.33
306.149	976.606
310.23	422.911
314.308	268.252
318.385	198.643
322.459	292.129
326.532	754.763
330.602	1769.58
334.671	1166.71
338.737	1738.61
342.802	2734.81
346.864	1893.81
350.925	2449.31
354.983	1697.81
359.04	826.926
363.094	1170.56
367.147	2466.49
371.197	2130.92
375.246	1523.55
379.293	1080.87
383.337	1231.97
387.38	2482.11
391.421	7662.17
395.459	6069.66
399.496	1731.77
403.531	911.393
407.564	975.844
411.594	1792.84
415.623	2408.86
419.65	1375.56
423.675	700.315
427.698	580.045
431.719	775.6
435.738	1059.93
439.755	523.622
443.77	651.02
447.783	1140.29
451.795	1868.21
455.804	4572.03
459.811	12428
463.816	14644.6
467.82	6760.84
471.821	2964.44
475.821	1678.41
479.818	1460.93
483.814	1012.61
487.808	640.817
491.799	446.009
495.789	331.886
499.777	322.457
503.763	236.753
507.747	241.848
511.729	373.775
515.709	550.567
519.687	545.154
523.663	453.557
527.638	674.816
531.61	423.885
535.581	267.818
539.549	39.532
543.516	35.997
547.48	16.794
551.443	3.838
555.404	18.856
559.363	32.285
563.32	49.623
567.275	0.046
571.228	5.481
575.18	62.8
579.129	61.677
583.076	25.442
587.022	37.436
590.966	19.691
594.907	15.908
598.847	74.001
602.785	40.565
606.721	122.456
610.655	136.86
614.588	134.769
618.518	189.265
622.446	359.713
626.373	381.978
630.298	452.617
634.22	681.402
638.141	921.062
642.06	1396.27
645.977	2105.83
649.892	3538.12
653.806	4378.69
657.717	5003.05
661.627	7678.87
665.534	15823.4
669.44	41131.4
673.344	54142.5
677.246	26193.4
681.146	10719.1
685.045	5849.87
688.941	4203.7
692.836	2994.93
696.728	1923.32
700.619	1364.46
704.508	1071.72
708.395	851.243
712.28	668.127
716.164	578.436
720.045	414.264
723.925	377.207
727.802	360.962
731.678	241.014
735.552	321.018
739.424	462.199
743.295	546.969
747.163	762.169
751.03	889.417
754.895	409.213
758.758	308.902
762.619	116.905
766.478	137.808
770.335	114.707
774.191	65.838
778.044	47.35
781.896	129.341
785.746	132.545
789.594	170.229
793.441	139.717
797.285	92.013
801.128	8.9
804.969	72.927
808.808	15.543
812.645	2.118
816.48	61.922
820.314	27.393
824.145	43.898
827.975	108.104
831.803	60.316
835.629	5.13
839.454	2.811
843.276	29.573
847.097	42.112
850.916	18.359
854.733	0.959
858.548	62.069
862.362	42.027
866.173	50.633
869.983	14.149
873.791	7.606
877.597	31.017
881.402	89.158
885.204	82.248
889.005	115.391
892.804	176.106
896.601	140.878
900.397	230.551
904.19	311.144
907.982	438.665
911.772	589.076
915.56	861.053
919.347	1498.56
923.131	3035.12
926.914	7180.73
930.695	7876.23
934.474	3783.43
938.252	1948.89
942.027	1694.54
945.801	1909.91
949.573	1245.5
953.344	546.465
957.112	496.008
960.879	266.345
964.644	216.534
968.407	229.151
972.168	205.525
975.928	157.173
979.686	150.69
983.442	212.823
987.196	171.653
990.949	198.033
994.699	147.084
998.448	244.28
1002.2	365.228
1005.94	387.902
1009.68	397.672
1013.43	517.771
1017.17	950.481
1020.9	1044.82
1024.64	1831.13
1028.38	2280.5
1032.11	1581.6
1035.84	1078.72
1039.57	1194.16
1043.3	1800.07
1047.02	2765.95
1050.75	5911.73
1054.47	15178.1
1058.19	32003.5
1061.91	19038.1
1065.63	7123.15
1069.34	3768.39
1073.06	2092.42
1076.77	1426.6
1080.48	1050.54
1084.19	943.948
1087.89	737.735
1091.6	451.178
1095.3	334.488
1099.01	297.956
1102.7	261.254
1106.4	264.553
1110.1	27.412
1113.8	79.406
1117.49	241.285
1121.18	322.993
1124.87	145.415
1128.56	36.713
1132.24	95.727
1135.93	50.291
1139.61	27.124
1143.29	42.197
1146.97	38.958
1150.65	179.838
1154.32	364.114
1158	714.135
1161.67	374.22
1165.34	75.945
1169.01	165.355
1172.67	68.162
1176.34	25.877
1180	16.406
1183.67	70.665
1187.33	78.05
1190.98	56.452
1194.64	105.921
1198.3	78.057
1201.95	73.357
1205.6	113.521
1209.25	156.936
1212.9	19.169
1216.55	173.851
1220.19	204.744
1223.84	245.889
1227.48	217.849
1231.12	176.84
1234.76	124.702
1238.39	232.193
1242.03	89.308
1245.66	186.907
1249.29	193.265
1252.92	87.47
1256.55	191.744
1260.17	214.105
1263.8	256.035
1267.42	187.931
1271.04	233.979
1274.66	78.078
1278.28	135.366
1281.9	182.991
1285.51	129.147
1289.13	92.063
1292.74	45.057
1296.35	108.372
1299.95	121.126
1303.56	43.241
1307.16	74.485
1310.77	65.521
1314.37	72.76
1317.97	2.538
1321.57	3.293
1325.16	110.193
1328.76	109.304
1332.35	61.824
1335.94	53.17
1339.53	83.914
1343.12	86.491
1346.71	211.78
1350.29	160.232
1353.87	158.409
1357.45	54.597
1361.03	140.315
1364.61	105.639
1368.19	89.824
1371.76	112.863
1375.34	129.734
1378.91	116.721
1382.48	158.347
1386.05	98.065
1389.61	81.174
1393.18	173.994
1396.74	286.179
1400.3	265.862
1403.86	132.867
1407.42	202.566
1410.98	33.839
1414.53	163.745
1418.08	671.09
1421.64	70.382
1425.19	203.949
1428.73	228.152
1432.28	282.528
1435.83	290.285
1439.37	261.018
1442.91	205.234
1446.45	261.867
1449.99	134.17
1453.53	220.438
1457.06	151.012
1460.6	212.395
1464.13	351.918
1467.66	179.861
1471.19	453.65
1474.72	430.035
1478.24	296.078
1481.77	247.342
1485.29	377.947
1488.81	156.98
1492.33	95.322
1495.85	4.178
1499.36	298.389
1502.88	166.316
1506.39	58.021
1509.9	90.117
1513.41	79.338
1516.92	115.869
1520.42	170.082
1523.93	0
