Measurement: Raman, 514 nm, ccw, Raman Data Processed
Mineral: Tremolite
Rruff sample: R050167
Ideal chemistry: [box]Ca_2_Mg_5_Si_8_O_22_(OH)_2_
Locality: Hunza Valley, Afghanistan
Source: Marcus Origlieri
Description: Green tabular crystals
Measured chemistry: ([box]_0.90_Na_0.10_)(Ca_0.98_Mg_0.01_Fe^2+^_0.01_)_2_(Mg_0.94_Al_0.06_)_5_(Si_0.95_Al_0.05_)_8_O_22_((OH)_0.98_F_0.02_)_2_
Pin_id: L00357
Orientation: Laser parallel to b* (0 1 0). Fiducial mark perpendicular to laser is parallel to c [0 0 1]
Raman shift (cm-1)	intensity
83.667	0
87.858	57.205
92.046	136.858
96.233	149.525
100.418	205.541
104.6	371.811
108.781	1037.85
112.959	2375.75
117.136	3358.16
121.31	6264.96
125.482	7646.52
129.653	3910.57
133.821	1347.65
137.987	511.858
142.152	136.178
146.314	16.81
150.474	58.109
154.633	68.588
158.789	879.939
162.943	1908.96
167.095	1054.67
171.246	1188.54
175.394	3796.36
179.54	8373.41
183.684	5884.81
187.826	2251.64
191.967	903.027
196.105	579.681
200.241	387.485
204.375	428.01
208.507	655.552
212.638	1204.12
216.766	2727.19
220.892	6538.44
225.016	9046.47
229.139	5667.25
233.259	3600.79
237.377	2684.11
241.493	1439.23
245.608	842.183
249.72	1200.79
253.83	1395.37
257.939	759.395
262.045	392.616
266.15	173.361
270.252	16.36
274.353	66.324
278.451	21.678
282.548	51.711
286.642	394.474
290.735	809.206
294.826	663.009
298.914	562.011
303.001	824.006
307.086	781.926
311.168	546.788
315.249	323.021
319.328	302.408
323.405	408.243
327.48	813.024
331.553	1714.67
335.624	1811.62
339.693	1346.62
343.76	1700.83
347.826	1686.13
351.889	1598.87
355.95	1506.07
360.01	1458.1
364.067	2228.96
368.123	4596.66
372.176	6464.19
376.228	4511.55
380.277	2634.85
384.325	2065.24
388.371	2443.55
392.415	4448.39
396.457	5998.27
400.497	3536.61
404.535	1606.61
408.571	1067.62
412.605	1244.93
416.638	1871.17
420.668	1817.41
424.697	1157.82
428.723	668.515
432.748	515.501
436.77	516.68
440.791	444.693
444.81	194.886
448.827	97.654
452.842	69.022
456.855	38.314
460.867	59.888
464.876	49.18
468.883	42.103
472.889	79.281
476.892	29.999
480.894	30.964
484.894	180.733
488.892	186.206
492.888	114.502
496.882	2.599
500.874	40.585
504.865	60.222
508.853	10.375
512.84	84.136
516.824	331.406
520.807	519.466
524.788	390.321
528.767	397.969
532.744	324.41
536.719	249.649
540.693	169.688
544.664	127.522
548.634	138.185
552.601	91.661
556.567	86.421
560.531	47.033
564.493	11.98
568.453	73.787
572.412	3.457
576.368	89.945
580.323	102.233
584.275	204.319
588.226	186.214
592.175	137.953
596.122	76.627
600.068	57.312
604.011	106.682
607.952	117.645
611.892	139.633
615.83	174.583
619.766	257.895
623.7	383.936
627.632	475.861
631.563	587.136
635.491	769.73
639.418	1058.53
643.343	1645
647.266	2499.71
651.187	3908.5
655.106	5773.55
659.024	6865.18
662.939	8597.51
666.853	13583.9
670.765	25145
674.675	36697.2
678.583	26369.8
682.49	13262.1
686.394	6724.11
690.297	3908.21
694.198	2556.34
698.097	1940.36
701.995	1474.23
705.89	1020.36
709.784	987.132
713.675	772.514
717.565	613.218
721.453	552.111
725.34	565.941
729.224	520.179
733.107	493.278
736.988	526.941
740.867	615.097
744.744	733.078
748.62	944.476
752.493	1032.13
756.365	683.428
760.235	452.654
764.103	294.499
767.969	123.396
771.834	54.029
775.697	10.844
779.558	60.541
783.417	49.18
787.274	5.275
791.13	8.232
794.983	69.713
798.835	5.092
802.686	46.689
806.534	10.737
810.38	63.964
814.225	37.372
818.068	63.171
821.909	6.702
825.749	110.129
829.586	99.439
833.422	98.636
837.256	149.72
841.088	139.692
844.919	158.563
848.748	30.326
852.575	75.975
856.4	65.479
860.223	5.852
864.045	29.941
867.864	4.103
871.682	7.993
875.499	60.354
879.313	38.027
883.126	15.94
886.937	51.994
890.746	146.843
894.553	146.591
898.359	136.249
902.163	241.822
905.965	211.32
909.765	369.763
913.564	468.148
917.361	595.487
921.156	888.705
924.949	1408.27
928.74	2268.28
932.53	2878.38
936.318	2038.51
940.104	1421.3
943.889	1173.02
947.672	1452.96
951.453	1370.16
955.232	1089.33
959.01	722.612
962.785	499.399
966.559	401.042
970.332	281.16
974.102	289.975
977.871	305.389
981.638	270.92
985.404	357.312
989.167	358.515
992.929	384.294
996.689	393.922
1000.45	600.314
1004.2	785.035
1007.96	1139.31
1011.71	1238.55
1015.46	1446.44
1019.21	1625.52
1022.96	2156.37
1026.71	3233.77
1030.45	4420.73
1034.19	3771.4
1037.94	2583.51
1041.68	2247.32
1045.41	2506.19
1049.15	3174.06
1052.88	4445.98
1056.62	6099.99
1060.35	7392.33
1064.08	6327.19
1067.8	5129.77
1071.53	4282.05
1075.25	2837.55
1078.97	1753.49
1082.7	1102.45
1086.41	820.27
1090.13	555.44
1093.85	384.313
1097.56	365.569
1101.27	312.416
1104.98	361.074
1108.69	344.415
1112.4	283.332
1116.1	279.625
1119.81	139.537
1123.51	317.574
1127.21	146.328
1130.91	116.69
1134.61	132.925
1138.3	160.317
1141.99	23.187
1145.68	31.354
1149.38	18.45
1153.06	17.442
1156.75	24.357
1160.43	59.999
1164.12	148.321
1167.8	102.631
1171.48	16.307
1175.16	38.14
1178.83	30.513
1182.51	72.579
1186.18	84.541
1189.85	40.035
1193.52	51.417
1197.19	35.605
1200.86	40.966
1204.52	41.142
1208.19	24.086
1211.85	1.497
1215.51	154.917
1219.17	202.08
1222.82	212.121
1226.48	184.776
1230.13	109.292
1233.78	38.88
1237.43	61.073
1241.08	67.472
1244.73	68.838
1248.37	181.131
1252.01	182.583
1255.66	241.621
1259.3	264.272
1262.93	197.709
1266.57	102.179
1270.21	132.574
1273.84	115.383
1277.47	120.813
1281.1	182.584
1284.73	232.789
1288.36	198.889
1291.98	105.675
1295.6	125.384
1299.23	38.646
1302.85	49.582
1306.46	73.005
1310.08	166.133
1313.7	164.873
1317.31	133.198
1320.92	258.337
1324.53	141.383
1328.14	106.779
1331.75	60.994
1335.35	42.12
1338.96	63.577
1342.56	155.338
1346.16	168.879
1349.76	190.261
1353.36	399.031
1356.95	173.146
1360.55	159.797
1364.14	113.031
1367.73	64.132
1371.32	36.088
1374.91	174.097
1378.49	54.415
1382.08	141.547
1385.66	312.554
1389.24	263.69
1392.82	243.612
1396.4	242.668
1399.97	126.667
1403.55	53.079
1407.12	87.29
1410.69	39.396
1414.26	178.629
1417.83	248.358
1421.4	367.539
1424.96	347.8
1428.53	315.623
1432.09	260.466
1435.65	263.834
1439.21	145.742
1442.76	100.68
1446.32	22.428
1449.87	184.624
1453.43	149.12
1456.98	367.148
1460.53	306.002
1464.07	446.632
1467.62	606.485
1471.16	466.328
1474.71	292.121
1478.25	162.969
1481.79	77.501
1485.32	155.904
1488.86	269.568
1492.39	45.479
1495.93	280.821
1499.46	216.309
1502.99	307.115
1506.52	451.942
1510.05	369.254
1513.57	206.807
1517.09	169.501
1520.62	0
