Measurement: Raman, 514 nm, ccw, Raman Data Processed
Mineral: Tremolite
Rruff sample: R050173
Ideal chemistry: [box]Ca_2_Mg_5_Si_8_O_22_(OH)_2_
Locality: Fort Dauphin, Madagascar
Source: Marcus Origlieri
Description: Mass of colorless acicular crystals
Measured chemistry: [box]Ca_2.00_Mg_5.00_Si_8.00_O_22_(OH)_2_
Pin_id: L00398
Orientation: Laser parallel to (1 0 1). Fiducial mark perpendicular to laser is parallel to b [0 1 0]
Raman shift (cm-1)	intensity
88.374	0
92.562	157.014
96.748	70.256
100.932	83.148
105.114	138.797
109.294	281.421
113.472	1476.19
117.647	3008.41
121.821	1805.21
125.992	911.927
130.162	307.906
134.329	143.786
138.494	180.287
142.657	336.249
146.819	381.46
150.978	481.797
155.135	1860
159.29	5246.23
163.443	4710.69
167.593	1173.59
171.742	2005.15
175.889	9345.91
180.034	8698.69
184.176	1104.55
188.317	348.239
192.456	307.613
196.592	73.403
200.726	42.611
204.859	258.55
208.989	671.571
213.118	2033.71
217.244	6655.84
221.368	19037.7
225.49	15189.1
229.611	14449.9
233.729	12790.2
237.845	3710.06
241.959	1109.63
246.071	2859.05
250.181	5198.47
254.289	2249.52
258.395	665.012
262.499	980.748
266.601	307.42
270.701	145.82
274.799	179.594
278.895	76.096
282.989	373.13
287.08	445.565
291.17	289.564
295.258	142.163
299.344	607.278
303.428	1020.89
307.51	554.006
311.589	548.934
315.667	65.646
319.743	32.97
323.817	4.789
327.889	285.733
331.958	898.373
336.026	651.478
340.092	1253.27
344.156	2991.88
348.218	5668.14
352.278	7053.85
356.336	3469.25
360.391	2933.67
364.445	4977.24
368.497	10890.8
372.547	6874.23
376.595	3897.34
380.641	2010.16
384.685	1663.43
388.727	3848.17
392.767	9813.18
396.805	6059.57
400.841	1747.61
404.875	1156.29
408.907	2498.4
412.937	4682.81
416.966	5417.96
420.992	2079.98
425.016	940.664
429.038	831.624
433.059	1982.91
437.077	1957.71
441.094	347.44
445.108	50.9
449.121	29.882
453.131	42.8
457.14	231.09
461.146	625.91
465.151	690.684
469.154	145.029
473.155	49.056
477.154	0.306
481.15	216.5
485.145	331.822
489.138	99.49
493.129	181.367
497.119	82.829
501.106	323.919
505.091	464.661
509.074	1375.11
513.056	2805.26
517.035	2835.21
521.013	2324.95
524.988	2894.52
528.962	4173.89
532.934	2252.95
536.904	751.715
540.872	440.26
544.838	158.583
548.802	66.612
552.764	25.725
556.724	61.504
560.682	98.273
564.639	125.438
568.593	80.2
572.546	25.427
576.496	170.213
580.445	214.592
584.392	248.604
588.337	132.25
592.28	235.713
596.221	60.66
600.16	67.34
604.097	72.501
608.033	137.462
611.966	187.196
615.898	196.277
619.828	263.119
623.755	410.018
627.681	401.362
631.605	569.539
635.527	765.634
639.448	1224.7
643.366	1956.65
647.283	3400.48
651.197	5141.4
655.11	5478.76
659.021	5605.4
662.93	8047.38
666.837	17129.1
670.742	41614.8
674.645	46826.4
678.546	21809.1
682.446	10173.3
686.344	7652.2
690.239	7561.81
694.133	4892.26
698.025	2872.24
701.916	2043.11
705.804	1480.11
709.69	1291.98
713.575	1275.63
717.458	986.129
721.338	736.354
725.217	708.512
729.095	759.872
732.97	1010.55
736.843	2032.99
740.715	3024.68
744.584	1885.39
748.452	1845.09
752.318	1516.07
756.182	830.017
760.045	438.089
763.905	446.185
767.764	274.835
771.621	212.911
775.475	251.561
779.329	230.438
783.18	158.836
787.029	76.799
790.877	34.484
794.722	101.873
798.566	78.903
802.408	35.537
806.249	151.741
810.087	112.381
813.923	62.982
817.758	12.002
821.591	52.604
825.422	33.235
829.251	19.666
833.079	56.539
836.904	46.553
840.728	75.373
844.55	11.549
848.37	126.635
852.188	5.33
856.005	105.549
859.82	26.061
863.633	6.316
867.444	36.385
871.253	86.289
875.06	13.982
878.866	125.545
882.67	104.867
886.472	83.98
890.272	272.865
894.07	181.539
897.867	259.992
901.662	358.252
905.455	721.295
909.246	604.408
913.035	572.268
916.823	939.938
920.608	1677.01
924.392	3378.93
928.175	6510.32
931.955	6196.09
935.734	2920.93
939.511	2106.06
943.286	3050.04
947.059	4053.08
950.83	2115.93
954.6	1115.19
958.368	807.004
962.134	512.617
965.898	466.268
969.661	337.158
973.422	299.779
977.181	276.486
980.938	301.125
984.693	391.791
988.447	463.072
992.199	438.475
995.949	372.115
999.697	622.189
1003.44	710.951
1007.19	1011.95
1010.93	1574.09
1014.67	2512.32
1018.41	4918.85
1022.15	6011.73
1025.89	11503.5
1029.62	13097.2
1033.35	5391.56
1037.08	2694.11
1040.81	1999.62
1044.54	2733.67
1048.27	2897.9
1051.99	4111.59
1055.71	10645.9
1059.43	19858.5
1063.15	10821.4
1066.87	6174.8
1070.58	5067.19
1074.3	2647.24
1078.01	1878.87
1081.72	2658.44
1085.42	9668.7
1089.13	5277.56
1092.84	1586.62
1096.54	766.268
1100.24	531.146
1103.94	333.867
1107.64	391.662
1111.33	418.629
1115.03	395.18
1118.72	330.848
1122.41	346.061
1126.1	80.4
1129.79	35.23
1133.47	121.76
1137.15	71.369
1140.84	185.002
1144.52	161.973
1148.19	164.367
1151.87	75.934
1155.55	18.141
1159.22	30.186
1162.89	128.488
1166.56	7.189
1170.23	299.439
1173.9	114.443
1177.56	103.154
1181.22	259.27
1184.89	45.207
1188.55	277.352
1192.2	174.762
1195.86	485.982
1199.52	173.652
1203.17	418.865
1206.82	324.736
1210.47	272.986
1214.12	373.15
1217.76	506.738
1221.41	487.832
1225.05	523.039
1228.69	616.119
1232.33	590.85
1235.97	525.303
1239.6	285.66
1243.24	475.051
1246.87	482.977
1250.5	190.006
1254.13	512.729
1257.76	464.65
1261.38	531.84
1265.01	438.928
1268.63	377.67
1272.25	193.318
1275.87	443.658
1279.49	397.822
1283.1	411.676
1286.72	182.32
1290.33	402.521
1293.94	264.117
1297.55	99.791
1301.16	74.121
1304.76	224.01
1308.37	51.318
1311.97	251.369
1315.57	13.314
1319.17	48.34
1322.77	137.424
1326.36	159.656
1329.95	234.254
1333.55	133.666
1337.14	76.146
1340.73	114.744
1344.32	311.123
1347.9	236.697
1351.48	250.029
1355.07	350.789
1358.65	349.178
1362.23	316.4
1365.8	263.191
1369.38	328.391
1372.95	151.533
1376.53	101.326
1380.1	89.746
1383.67	186.996
1387.23	534.49
1390.8	399.176
1394.36	652.428
1397.93	281.301
1401.49	468.941
1405.05	399.777
1408.61	242.504
1412.16	41.676
1415.71	348.918
1419.27	192.941
1422.82	589.176
1426.37	855.852
1429.92	353.492
1433.46	443.598
1437.01	504.648
1440.55	205.336
1444.09	579.094
1447.63	256.156
1451.17	455.422
1454.71	462.918
1458.24	540.082
1461.78	478.363
1465.31	391.117
1468.84	647.297
1472.37	589.344
1475.89	822.059
1479.42	771.754
1482.94	483.242
1486.46	116.633
1489.98	440.023
1493.5	440.883
1497.02	278.238
1500.53	138.402
1504.05	489.883
1507.56	340.961
1511.07	96.402
1514.58	260.039
1518.09	94.414
1521.59	302.211
