Measurement: Raman, 514 nm, ccw, Raman Data Processed
Mineral: Tremolite
Rruff sample: R050167
Ideal chemistry: [box]Ca_2_Mg_5_Si_8_O_22_(OH)_2_
Locality: Hunza Valley, Afghanistan
Source: Marcus Origlieri
Description: Green tabular crystals
Measured chemistry: ([box]_0.90_Na_0.10_)(Ca_0.98_Mg_0.01_Fe^2+^_0.01_)_2_(Mg_0.94_Al_0.06_)_5_(Si_0.95_Al_0.05_)_8_O_22_((OH)_0.98_F_0.02_)_2_
Pin_id: L00357
Orientation: Laser parallel to b* (0 1 0). Fiducial mark perpendicular to laser is parallel to c [0 0 1]
Raman shift (cm-1)	intensity
69.684	0
73.881	148.485
78.076	144.5
82.27	88.283
86.461	55.331
90.65	30.402
94.838	76.092
99.023	33.024
103.206	93.558
107.387	212.849
111.566	865.095
115.744	1145.89
119.919	1730.74
124.092	2311.95
128.263	1347.28
132.432	404.374
136.599	126.355
140.764	1.3
144.927	32.718
149.088	103.282
153.247	396.274
157.404	3234.35
161.559	12073.4
165.711	8095.35
169.862	3880.52
174.011	5964.46
178.158	13735.9
182.303	13286.6
186.446	5462.42
190.587	2314.54
194.726	1552.96
198.862	1368.66
202.997	1142.4
207.13	1472.48
211.261	2278.02
215.39	4230.64
219.517	9603.13
223.642	17215.5
227.765	13167.6
231.886	6067.62
236.005	2866.3
240.122	1551.23
244.237	1038.41
248.35	1420.48
252.461	1909.54
256.57	1225.73
260.677	585.821
264.782	295.874
268.885	60.052
272.986	22.834
277.085	41.815
281.182	54.056
285.278	68.961
289.371	368.903
293.462	534.023
297.552	808.689
301.639	1817.94
305.724	2404.45
309.808	1559.28
313.889	976.254
317.969	693.847
322.046	569.038
326.122	656.141
330.196	1197.88
334.267	1767.52
338.337	1474.78
342.405	1516.2
346.471	1531.7
350.535	1171.66
354.597	986.544
358.657	759.292
362.715	666.368
366.771	755.176
370.825	1151.65
374.877	1234.97
378.928	1109.16
382.976	1144.28
387.023	1599.2
391.067	3121.06
395.11	5633.86
399.15	4271.58
403.189	1863.32
407.226	979.24
411.261	1021.05
415.294	1492.71
419.325	1707.22
423.354	1139.31
427.381	654.182
431.406	446.697
435.43	488.507
439.451	420.864
443.471	189.319
447.488	77.907
451.504	53.56
455.518	17.913
459.53	4.935
463.54	17.952
467.548	11.457
471.554	13.858
475.558	8.442
479.561	15.424
483.561	92.128
487.559	119.674
491.556	35.066
495.551	6.267
499.544	44.732
503.535	22.105
507.524	29.829
511.511	12.861
515.496	79.84
519.48	117.349
523.461	151.68
527.441	177.84
531.418	259.832
535.394	239.658
539.368	184.319
543.34	172.814
547.311	187.143
551.279	181.308
555.245	161.306
559.21	127.135
563.173	84.794
567.133	89.297
571.092	121.642
575.049	94.81
579.005	151.796
582.958	129.611
586.909	114.253
590.859	197.727
594.807	135.057
598.753	93.298
602.697	139.483
606.639	127.903
610.579	262.474
614.518	292.742
618.454	349.199
622.389	451.528
626.322	643.753
630.253	754.109
634.182	946.531
638.109	1184.85
642.035	1667.55
645.958	2282.13
649.88	3271.19
653.8	4488.15
657.718	6077.66
661.634	8545.46
665.549	14347.5
669.461	27270
673.372	46035.7
677.281	40931.6
681.188	21127.9
685.093	10534.1
688.997	5872.33
692.898	3781.48
696.798	2550.52
700.696	1874.39
704.592	1416.21
708.486	1155.86
712.378	924.309
716.269	750.553
720.158	615.934
724.045	560.316
727.93	555.927
731.813	446.194
735.694	421.774
739.574	345.213
743.452	410.665
747.328	483.301
751.202	472.929
755.075	369.101
758.945	229.196
762.814	121.468
766.681	77.863
770.546	26.243
774.409	20.571
778.271	5.122
782.131	32.951
785.989	16.013
789.845	26.894
793.699	17.217
797.552	33.402
801.402	18.279
805.251	22.117
809.098	51.738
812.944	47.372
816.787	19.174
820.629	9.997
824.469	26.185
828.307	64.366
832.144	125.525
835.978	133.657
839.811	154.761
843.642	125.842
847.472	152.901
851.299	159.942
855.125	131.971
858.949	59.995
862.771	57.021
866.591	33.041
870.41	0.939
874.227	81.089
878.042	65.083
881.855	89.062
885.667	94.059
889.476	294.086
893.284	321.134
897.09	450.237
900.895	449.383
904.698	540.606
908.499	619.88
912.298	873.186
916.095	1243.55
919.891	1909.98
923.685	2823.02
927.477	4487.81
931.267	6063.99
935.056	5054.33
938.843	3026.87
942.628	1892.46
946.411	1580.19
950.193	1443.42
953.973	1152.44
957.751	885.986
961.527	744.187
965.302	574.846
969.075	500.375
972.846	367.348
976.615	430.742
980.383	348.606
984.149	347.39
987.913	379.428
991.675	369.42
995.436	371.821
999.195	348.235
1002.95	408.626
1006.71	529.834
1010.46	619.375
1014.21	869.28
1017.96	887.435
1021.71	1076.88
1025.46	1261.8
1029.2	1669.36
1032.95	2001.77
1036.69	2578.5
1040.43	3146.15
1044.17	4173.73
1047.9	5895.51
1051.64	8955.92
1055.37	13563.9
1059.1	17899
1062.83	17066.4
1066.56	11067
1070.29	6445.98
1074.01	3559.05
1077.73	2016.97
1081.46	1403.8
1085.17	972.654
1088.89	774.111
1092.61	678.94
1096.32	581.645
1100.04	386.445
1103.75	351.201
1107.46	369.747
1111.16	331.138
1114.87	252.156
1118.57	246.135
1122.28	279.961
1125.98	237.794
1129.67	70.5
1133.37	51.953
1137.07	93.28
1140.76	49.772
1144.45	152.997
1148.14	102.019
1151.83	43.619
1155.52	1.201
1159.21	45.03
1162.89	9.567
1166.57	27.945
1170.25	34.374
1173.93	86.531
1177.61	32.345
1181.28	8.505
1184.96	19.766
1188.63	55.646
1192.3	59.759
1195.97	3.42
1199.64	12.137
1203.3	41.469
1206.97	7.593
1210.63	10.476
1214.29	56.562
1217.95	47.679
1221.6	92.575
1225.26	64.08
1228.91	26.792
1232.57	117.158
1236.21	102.071
1239.86	196.313
1243.51	25.789
1247.16	8.702
1250.8	84.894
1254.44	65.859
1258.08	139.781
1261.72	145.406
1265.36	130.55
1268.99	103.481
1272.63	92.968
1276.26	49.14
1279.89	118.04
1283.52	56.55
1287.15	87.367
1290.77	216.898
1294.4	213.832
1298.02	187.881
1301.64	111.15
1305.26	30.994
1308.88	55.227
1312.49	105.003
1316.11	24.068
1319.72	130.965
1323.33	177.025
1326.94	121.082
1330.55	208.746
1334.15	188.633
1337.76	119.497
1341.36	20.223
1344.96	143.595
1348.56	21.349
1352.16	101.021
1355.75	155.277
1359.35	187.041
1362.94	170.406
1366.53	188.161
1370.12	116.618
1373.71	4.26
1377.3	62.69
1380.88	8.109
1384.46	54.666
1388.05	77.651
1391.63	180.737
1395.2	177.58
1398.78	139.27
1402.36	215.553
1405.93	134.371
1409.5	152.882
1413.07	138.238
1416.64	8.264
1420.21	5.718
1423.78	48.958
1427.34	16.404
1430.9	205.159
1434.46	186.717
1438.02	229.938
1441.58	280.167
1445.13	266.98
1448.69	201.757
1452.24	143.958
1455.79	58.875
1459.34	153.387
1462.89	117.26
1466.44	76.045
1469.98	176.164
1473.53	289.69
1477.07	357.39
1480.61	320.45
1484.14	284.895
1487.68	189.214
1491.22	185.389
1494.75	129.519
1498.28	109.299
1501.81	79.415
1505.34	111.945
1508.87	86.859
1512.4	103.846
1515.92	190.084
1519.44	0
