Measurement: Raman, 514 nm, ccw, Raman Data Processed
Mineral: Tremolite
Rruff sample: R050167
Ideal chemistry: [box]Ca_2_Mg_5_Si_8_O_22_(OH)_2_
Locality: Hunza Valley, Afghanistan
Source: Marcus Origlieri
Description: Green tabular crystals
Measured chemistry: ([box]_0.90_Na_0.10_)(Ca_0.98_Mg_0.01_Fe^2+^_0.01_)_2_(Mg_0.94_Al_0.06_)_5_(Si_0.95_Al_0.05_)_8_O_22_((OH)_0.98_F_0.02_)_2_
Pin_id: M00415
Orientation: Laser parallel to -c* (0 0 -1). Fiducial mark perpendicular to laser is parallel to -a [-1 0 0]
Raman shift (cm-1)	intensity
90.446	0
94.639	107.515
98.831	38.368
103.02	63.641
107.207	242.049
111.393	903.167
115.576	2826.11
119.757	4259.73
123.936	1598.36
128.112	418.861
132.287	3.812
136.46	19.745
140.63	65.625
144.799	46.175
148.965	13.285
153.13	182.155
157.292	2738.75
161.452	6376.13
165.611	3260.32
169.767	2398.33
173.921	5237.28
178.073	9315.27
182.222	5276.76
186.37	1872.02
190.516	908.145
194.66	538.703
198.801	534.154
202.941	790.286
207.079	1421.05
211.214	2883.04
215.348	5987.45
219.479	12504.1
223.608	15710.7
227.736	11987.2
231.861	14263.6
235.984	12579.9
240.105	5596.09
244.224	3562.2
248.342	4998.35
252.457	5344.85
256.57	3216.78
260.681	2550.31
264.79	1825.76
268.896	1001.32
273.001	82.96
277.104	10.156
281.205	71.024
285.304	67.479
289.401	120.65
293.495	291.058
297.588	477.34
301.679	1094.59
305.767	1102.77
309.854	849.369
313.939	562.81
318.021	281.922
322.102	191.739
326.181	341.479
330.257	673.847
334.332	858.676
338.405	920.816
342.475	1576.77
346.544	2939.69
350.61	4243.69
354.675	4109.21
358.738	3624.52
362.798	4059.69
366.857	5874.71
370.913	7839.58
374.968	7134.27
379.021	4898.8
383.071	3603.17
387.12	3997.35
391.166	6981.81
395.211	8437.83
399.254	4144.33
403.294	2157.47
407.333	2073.23
411.37	3495.23
415.405	5295.83
419.437	4586.97
423.468	2793.66
427.497	1987.47
431.524	1974.66
435.549	2217.84
439.572	1394.04
443.593	598.25
447.611	177.808
451.628	73.887
455.644	78.588
459.657	115.854
463.668	26.344
467.677	13.953
471.684	16.256
475.689	29.24
479.692	119.876
483.694	161.905
487.693	203.213
491.691	80.886
495.686	27.127
499.68	75.928
503.671	203.286
507.661	702.257
511.648	1617.9
515.634	2338.22
519.618	2619.31
523.6	2849.79
527.58	3845.03
531.558	3867.89
535.534	2248.38
539.508	1141.5
543.48	769.266
547.45	408.697
551.418	160.761
555.385	145.467
559.349	28.83
563.312	84.712
567.272	1.958
571.231	19.473
575.187	38.57
579.142	112.71
583.095	68.474
587.046	45.743
590.995	40.482
594.942	53.307
598.888	35.774
602.831	7.925
606.772	45.765
610.712	7.48
614.649	44.405
618.585	233.219
622.519	411.528
626.45	490.303
630.38	619.761
634.308	888.357
638.235	1409.85
642.159	2030.68
646.081	3016.86
650.002	4285.09
653.92	5691.92
657.837	7626.49
661.752	10382.7
665.664	17382.3
669.575	32960.7
673.484	43928.8
677.392	29345.5
681.297	15311.4
685.2	9406.95
689.102	7471.61
693.002	5956.38
696.899	4162.3
700.795	2918.8
704.689	2035.55
708.581	1532.9
712.472	1228.29
716.36	1150.76
720.247	903.09
724.131	641.39
728.014	651.948
731.895	788.802
735.774	1048.61
739.651	1417.99
743.526	1291.64
747.4	1195.43
751.271	1162.12
755.141	711.229
759.009	465.069
762.875	287.204
766.739	99.458
770.601	45.417
774.462	23.743
778.32	106.158
782.177	20.563
786.032	44.765
789.885	69.78
793.736	8.372
797.585	22.222
801.433	132.477
805.279	72.379
809.122	30.07
812.964	24.582
816.804	161.94
820.643	86.117
824.479	23.063
828.314	11.806
832.147	37.372
835.977	5.788
839.807	301.062
843.634	246.216
847.459	106.255
851.283	14.851
855.105	50.132
858.925	20.398
862.743	24.884
866.559	59.143
870.373	51.807
874.186	55.207
877.997	41.678
881.806	61.52
885.613	154.835
889.419	328.298
893.222	231.811
897.024	365.395
900.824	439.034
904.622	612.791
908.418	796.823
912.213	1191.08
916.005	1315.46
919.796	2199.43
923.585	3232.98
927.373	5176.29
931.158	5488.55
934.942	3611.31
938.724	2413.92
942.504	1987.05
946.282	2158.99
950.059	2088.48
953.833	1593.64
957.606	1335.21
961.377	904.574
965.147	597.946
968.914	622.25
972.68	604.145
976.444	766.882
980.206	779.715
983.967	733.378
987.725	637.928
991.482	912.876
995.237	1078.63
998.99	1524.37
1002.74	1936.95
1006.49	2589.2
1010.24	2841.4
1013.99	3624.3
1017.73	4623
1021.47	5872.75
1025.21	7396.73
1028.95	8448.08
1032.69	7151.52
1036.42	5138.49
1040.16	4446.65
1043.89	5159.26
1047.62	6857.93
1051.35	9415.42
1055.08	12765.2
1058.8	13796
1062.53	10723.9
1066.25	7794.56
1069.97	5511.22
1073.68	3308.16
1077.4	2295.29
1081.11	1541.26
1084.83	1197.56
1088.54	973.358
1092.25	987.915
1095.95	963.12
1099.66	710.013
1103.36	624.541
1107.07	619.298
1110.77	502.736
1114.47	375.783
1118.16	170.343
1121.86	294.256
1125.55	396.268
1129.24	357.798
1132.93	319.791
1136.62	241.301
1140.31	122.051
1143.99	132.653
1147.68	192.68
1151.36	72.453
1155.04	125.169
1158.71	255.454
1162.39	178.749
1166.07	157.09
1169.74	44.745
1173.41	2.254
1177.08	52.062
1180.75	54.916
1184.41	104.463
1188.08	208.899
1191.74	242.81
1195.4	224.806
1199.06	32.924
1202.71	197.713
1206.37	110.64
1210.02	126.831
1213.68	198.113
1217.33	263.029
1220.98	276.732
1224.62	258.15
1228.27	142.58
1231.91	135.854
1235.55	245.178
1239.19	250.088
1242.83	268.469
1246.47	407.269
1250.1	513.583
1253.74	449.211
1257.37	324.841
1261	69.453
1264.63	112.736
1268.25	246.778
1271.88	327.027
1275.5	275.715
1279.12	446.518
1282.74	513.448
1286.36	459.208
1289.98	382.447
1293.59	304.089
1297.21	35.443
1300.82	153.946
1304.43	84.558
1308.04	478.727
1311.64	480.611
1315.25	499.9
1318.85	434.551
1322.45	309.553
1326.05	7.434
1329.65	62.373
1333.24	56.098
1336.84	163.604
1340.43	183.348
1344.03	452.936
1347.61	428.512
1351.2	605.592
1354.79	410.941
1358.37	242.139
1361.96	195.521
1365.54	365.275
1369.12	112.047
1372.69	133.084
1376.27	41.182
1379.85	401.107
1383.42	656.277
1386.99	441.215
1390.56	483.729
1394.13	385.674
1397.7	126.457
1401.26	124.596
1404.82	130.047
1408.38	99.865
1411.94	297.248
1415.5	377.582
1419.06	495.266
1422.62	608.477
1426.17	347.922
1429.72	428.822
1433.27	256.969
1436.82	104.793
1440.37	173.928
1443.91	175.627
1447.45	119.373
1450.99	311.836
1454.54	474.74
1458.07	696.09
1461.61	822.908
1465.15	663.436
1468.68	790.105
1472.21	703.855
1475.74	492.67
1479.27	164.887
1482.8	49.148
1486.32	53.043
1489.85	280.604
1493.37	600.225
1496.89	653.408
1500.41	729.746
1503.93	757.799
1507.44	950.592
1510.96	854.908
1514.47	396.949
