Measurement: Raman, 514 nm, ccw, Raman Data Processed
Mineral: Tremolite
Rruff sample: R050173
Ideal chemistry: [box]Ca_2_Mg_5_Si_8_O_22_(OH)_2_
Locality: Fort Dauphin, Madagascar
Source: Marcus Origlieri
Description: Mass of colorless acicular crystals
Measured chemistry: [box]Ca_2.00_Mg_5.00_Si_8.00_O_22_(OH)_2_
Pin_id: L00389
Orientation: Laser parallel to a* (1 0 0). Fiducial mark perpendicular to laser is parallel to b [0 1 0]
Raman shift (cm-1)	intensity
96.748	0
100.932	105.27
105.114	162.572
109.294	442.461
113.472	1995.87
117.647	3079.97
121.821	5105.42
125.992	3010.37
130.162	774.559
134.329	231.693
138.494	868.605
142.657	913.934
146.819	443.457
150.978	437.752
155.135	1635.3
159.29	3064.25
163.443	1614.43
167.593	427.078
171.742	1689.12
175.889	4719.59
180.034	2289.41
184.176	995.246
188.317	1807.6
192.456	2172.11
196.592	2435.09
200.726	3111.7
204.859	3599.9
208.989	4090.6
213.118	4517.75
217.244	4953.92
221.368	7091.28
225.49	4157.99
229.611	5723.91
233.729	3838.88
237.845	952.846
241.959	535.932
246.071	1428.23
250.181	1589.86
254.289	631.221
258.395	471.93
262.499	987.445
266.601	8.25
270.701	228.307
274.799	294.762
278.895	311.275
282.989	98.852
287.08	87.939
291.17	7.604
295.258	51.346
299.344	429.01
303.428	345.561
307.51	250.855
311.589	394.471
315.667	176.326
319.743	66.434
323.817	454.861
327.889	601.832
331.958	777.479
336.026	683.812
340.092	1208.91
344.156	1652.98
348.218	2493.03
352.278	2688.3
356.336	1310.19
360.391	1380.39
364.445	2939.25
368.497	4687.17
372.547	2723.88
376.595	1550.92
380.641	1139.86
384.685	1238.05
388.727	3795.94
392.767	6494.28
396.805	3052.18
400.841	1519.8
404.875	999.934
408.907	1594.19
412.937	2968.63
416.966	2742.46
420.992	1174.74
425.016	1026.08
429.038	945.805
433.059	1328.09
437.077	931.57
441.094	821.072
445.108	1028.27
449.121	1405.03
453.131	2396.65
457.14	6732.69
461.146	13595.4
465.151	8931.31
469.154	3662.39
473.155	1984.22
477.154	1394.9
481.15	1322.74
485.145	870.406
489.138	718.613
493.129	700.432
497.119	448.547
501.106	510.402
505.091	600.678
509.074	1132.46
513.056	1322.51
517.035	1002.06
521.013	791.211
524.988	1129.93
528.962	1118.16
532.934	715.941
536.904	223.221
540.872	309.924
544.838	206.125
548.802	121.719
552.764	46.682
556.724	180.996
560.682	304.555
564.639	42.822
568.593	189.148
572.546	81.094
576.496	131.809
580.445	231.781
584.392	270.863
588.337	198.617
592.28	57.75
596.221	12.664
600.16	73.146
604.097	83.357
608.033	82.455
611.966	157.463
615.898	158.168
619.828	179.182
623.755	298.553
627.681	67.686
631.605	215.998
635.527	304.83
639.448	522.732
643.366	981.127
647.283	1469.31
651.197	2105.97
655.11	2190.57
659.021	2713.37
662.93	4639.47
666.837	11057.1
670.742	24034.5
674.645	18816.7
678.546	8151.47
682.446	3932.75
686.344	2929.92
690.239	2231.92
694.133	1674.61
698.025	933.842
701.916	924.293
705.804	753.166
709.69	699.713
713.575	578.068
717.458	516.785
721.338	465.107
725.217	224.135
729.095	538.805
732.97	946.053
736.843	1652.47
740.715	1670.18
744.584	1098.34
748.452	1312.17
752.318	1223.81
756.182	784.865
760.045	223.867
763.905	431.873
767.764	134.82
771.621	185.908
775.475	298.5
779.329	302.186
783.18	354.588
787.029	47.752
790.877	301.326
794.722	414.664
798.566	358.361
802.408	302.027
806.249	205.08
810.087	111.812
813.923	190.703
817.758	132.91
821.591	125.664
825.422	47.764
829.251	70.756
833.079	50.072
836.904	250.652
840.728	98.736
844.55	90.834
848.37	10.209
852.188	59.201
856.005	177.771
859.82	213.203
863.633	184.07
867.444	41.832
871.253	129.521
875.06	102.941
878.866	116.344
882.67	250.482
886.472	127.143
890.272	213.605
894.07	419.795
897.867	525.686
901.662	331.33
905.455	596.773
909.246	491.988
913.035	436.527
916.823	540.961
920.608	1074.38
924.392	2067.7
928.175	3010.38
931.955	2473.52
935.734	1146.38
939.511	1218.08
943.286	1441.06
947.059	1644.34
950.83	1015.57
954.6	517.188
958.368	501.113
962.134	440.477
965.898	590.902
969.661	258.312
973.422	536.125
977.181	321.594
980.938	302.691
984.693	418.441
988.447	610.805
992.199	571.914
995.949	379.449
999.697	470.027
1003.44	476.477
1007.19	622.234
1010.93	728.621
1014.67	1165.34
1018.41	1708.52
1022.15	2794.32
1025.89	5523.68
1029.62	4277.2
1033.35	1966.99
1037.08	1063.21
1040.81	1048.96
1044.54	1312.48
1048.27	1468.43
1051.99	2768.21
1055.71	4928.31
1059.43	6241.73
1063.15	3275.55
1066.87	2979.6
1070.58	2322.06
1074.3	1406.46
1078.01	1264.14
1081.72	1144.43
1085.42	1344.34
1089.13	1003.69
1092.84	662.41
1096.54	420.66
1100.24	427.961
1103.94	304.785
1107.64	400.883
1111.33	556.02
1115.03	380.805
1118.72	994.566
1122.41	217.852
1126.1	210.129
1129.79	82.445
1133.47	75.117
1137.15	101.391
1140.84	79.48
1144.52	249.988
1148.19	309.918
1151.87	417.242
1155.55	488.836
1159.22	370.043
1162.89	150.973
1166.56	91.676
1170.23	202.008
1173.9	122.047
1177.56	1.738
1181.22	451.125
1184.89	0.211
1188.55	499.117
1192.2	117.895
1195.86	485.098
1199.52	322.199
1203.17	546.984
1206.82	388.52
1210.47	264.898
1214.12	545.492
1217.76	696.125
1221.41	522.754
1225.05	453.566
1228.69	588.176
1232.33	497.797
1235.97	724.367
1239.6	224.566
1243.24	416.078
1246.87	647.719
1250.5	272.828
1254.13	323.43
1257.76	349.039
1261.38	387.145
1265.01	363.43
1268.63	269.699
1272.25	317.426
1275.87	359.719
1279.49	304.695
1283.1	373.934
1286.72	90.582
1290.33	117.605
1293.94	0
