Measurement: Raman, 514 nm, ccw, Raman Data Processed
Mineral: Tremolite
Rruff sample: R050167
Ideal chemistry: [box]Ca_2_Mg_5_Si_8_O_22_(OH)_2_
Locality: Hunza Valley, Afghanistan
Source: Marcus Origlieri
Description: Green tabular crystals
Measured chemistry: ([box]_0.90_Na_0.10_)(Ca_0.98_Mg_0.01_Fe^2+^_0.01_)_2_(Mg_0.94_Al_0.06_)_5_(Si_0.95_Al_0.05_)_8_O_22_((OH)_0.98_F_0.02_)_2_
Pin_id: M00415
Orientation: Laser parallel to -c* (0 0 -1). Fiducial mark perpendicular to laser is parallel to -a [-1 0 0]
Raman shift (cm-1)	intensity
96.037	0
100.227	192.683
104.416	77.054
108.603	174.231
112.787	410.197
116.97	854.361
121.15	750.404
125.328	343.652
129.504	64.84
133.678	36.227
137.85	66.672
142.02	0.16
146.188	43.063
150.354	73.37
154.517	487.85
158.679	2710.54
162.839	3416.71
166.996	1430.36
171.152	1436.46
175.305	3373.99
179.456	4505.04
183.605	1959.17
187.752	738.978
191.898	429.051
196.041	425.72
200.182	412.721
204.321	795.578
208.457	1525.07
212.592	2886.74
216.725	5928.74
220.856	11068.2
224.984	12596.1
229.111	14954.1
233.236	23162.4
237.358	17170.8
241.479	8219.49
245.597	6198.33
249.713	9027.43
253.828	7717.01
257.94	4140.25
262.05	2271.75
266.159	1222.02
270.265	642.05
274.369	298.504
278.471	125.047
282.572	4.112
286.67	7.916
290.766	56.663
294.86	77.99
298.952	503.01
303.042	1164.6
307.13	1098.26
311.216	937.365
315.3	521.641
319.382	293.21
323.462	129.551
327.54	65.853
331.616	154.941
335.69	348.469
339.762	662.979
343.832	1250.25
347.9	2257.05
351.965	2990
356.029	2742.68
360.091	2422.5
364.151	3967.36
368.209	7742.26
372.265	8114.19
376.319	5063.18
380.371	3528.19
384.421	3680.22
388.469	6022.27
392.515	11555
396.559	11148.8
400.601	5645.23
404.641	3417.31
408.679	4008.5
412.715	6640.03
416.749	9286.24
420.781	7110.48
424.811	4095.69
428.839	2842.87
432.866	3240.27
436.89	3383.99
440.912	1665.63
444.932	704.081
448.951	305.272
452.967	160.974
456.981	121.906
460.994	132.017
465.004	127.705
469.013	73.346
473.019	33.668
477.024	119.212
481.026	150.542
485.027	403.711
489.026	302.726
493.023	61.603
497.017	55.68
501.01	77.786
505.001	194.054
508.99	555.138
512.977	1184.07
516.962	2115.85
520.945	2717.48
524.927	2967.97
528.906	3487.26
532.883	2492.33
536.858	1377.19
540.832	727.815
544.803	419.22
548.773	267.404
552.741	154.355
556.706	56.044
560.67	18.429
564.632	44.567
568.592	29.027
572.55	0.953
576.506	68.429
580.46	66.565
584.412	99.347
588.363	98.8
592.311	52.914
596.258	22.344
600.202	57.157
604.145	90.671
608.086	134.988
612.024	53.096
615.961	93.064
619.896	159.848
623.829	253.778
627.761	314.206
631.69	476.83
635.617	791.678
639.543	1062.95
643.466	1590.94
647.388	2469.25
651.308	3751.03
655.226	5094.78
659.142	6682.26
663.056	10419.5
666.968	20245.8
670.879	37837.9
674.787	40026.3
678.694	22247.4
682.598	11063.2
686.501	6437.25
690.402	4604.34
694.301	3243.78
698.198	2380.83
702.093	1712.59
705.987	1293.21
709.878	1118.83
713.768	911.761
717.656	669.133
721.542	645.285
725.426	554.352
729.308	582.511
733.188	511.077
737.067	708.144
740.943	868.054
744.818	1282.44
748.691	1721.04
752.562	1474.12
756.431	889.733
760.298	508.746
764.163	339.568
768.027	297.501
771.888	214.024
775.748	159.387
779.606	152.067
783.462	67.253
787.317	91.341
791.169	113.622
795.019	70.157
798.868	95.865
802.715	18.596
806.56	66.261
810.403	0.839
814.245	43.799
818.084	68.595
821.922	64.743
825.758	10.674
829.592	28.084
833.424	116.921
837.254	143.748
841.082	40.47
844.909	11.889
848.734	10.657
852.557	4.131
856.378	47.528
860.197	29.839
864.015	41.9
867.831	19.677
871.645	38.417
875.457	8.847
879.267	109.279
883.075	74.963
886.882	126.724
890.687	199.526
894.49	322.425
898.291	376.445
902.09	541.605
905.888	624.901
909.683	722.466
913.477	1054.4
917.269	1460.62
921.06	2381.09
924.848	3892.68
928.635	5352.1
932.42	4989.84
936.203	3045.22
939.984	2159.6
943.764	2065.27
947.541	2244.62
951.317	1862.77
955.091	1192.51
958.864	809.239
962.634	676.763
966.403	668.454
970.17	604.843
973.935	665.883
977.698	690.62
981.46	729.849
985.22	793.699
988.978	835.156
992.734	1118.75
996.488	1417.01
1000.24	1761.09
1003.99	2133.09
1007.74	2775.82
1011.49	3359.3
1015.23	3923.13
1018.98	4864.76
1022.72	6624.9
1026.46	9810.03
1030.2	10667.1
1033.93	7197.75
1037.67	4777.81
1041.4	4090.19
1045.13	4164.1
1048.86	4724.35
1052.59	5440.77
1056.32	6253.8
1060.04	6296.09
1063.77	5456.1
1067.49	5266.32
1071.2	4008.66
1074.92	2399.19
1078.64	1457.65
1082.35	970.462
1086.06	779.963
1089.78	656.698
1093.48	636.045
1097.19	503.47
1100.89	527.568
1104.6	454.492
1108.3	449.809
1112	385.113
1115.7	338.376
1119.39	393.396
1123.09	400.697
1126.78	420.542
1130.47	330.714
1134.16	195.827
1137.85	227.942
1141.54	144.184
1145.22	193.099
1148.9	168.851
1152.58	147.059
1156.26	104.085
1159.94	44.097
1163.62	36.668
1167.29	33.382
1170.96	14.903
1174.63	11.577
1178.3	131.067
1181.97	132.503
1185.63	100.864
1189.3	35.026
1192.96	82.027
1196.62	48.698
1200.28	62.49
1203.93	94.08
1207.59	90.442
1211.24	129.517
1214.89	117.793
1218.54	139.406
1222.19	52.521
1225.84	80.599
1229.48	87.741
1233.13	119.816
1236.77	182.994
1240.41	263.584
1244.05	226.273
1247.68	142.744
1251.32	103.929
1254.95	136.175
1258.58	140.337
1262.21	246.622
1265.84	127.638
1269.46	371.092
1273.09	297.064
1276.71	261.854
1280.33	157.302
1283.95	191.204
1287.57	74.58
1291.18	92.659
1294.8	144.895
1298.41	174.913
1302.02	157.344
1305.63	219.96
1309.24	159.396
1312.84	138.846
1316.45	50.061
1320.05	24.052
1323.65	78.53
1327.25	167.847
1330.85	163.607
1334.44	237.516
1338.04	148.442
1341.63	229.207
1345.22	169.692
1348.81	62.354
1352.4	63.159
1355.98	111.65
1359.57	70.035
1363.15	14.063
1366.73	6.277
1370.31	120.99
1373.89	135.718
1377.46	132.496
1381.04	148.997
1384.61	103.391
1388.18	67.584
1391.75	61.453
1395.32	34.296
1398.88	175.87
1402.45	95.415
1406.01	242.898
1409.57	266.624
1413.13	278.923
1416.69	228.698
1420.24	188.311
1423.8	120.632
1427.35	20.275
1430.9	58.291
1434.45	182.88
1438	171.491
1441.55	216.67
1445.09	245.35
1448.63	379.591
1452.18	339.626
1455.71	398.916
1459.25	317.408
1462.79	326.777
1466.32	187.358
1469.86	129.255
1473.39	26.464
1476.92	140.565
1480.45	194.396
1483.97	317.046
1487.5	347.532
1491.02	410.717
1494.54	393.409
1498.06	476.314
1501.58	367.099
1505.1	127.734
1508.62	114.187
1512.13	22.141
1515.64	1.364
