Measurement: Raman, 514 nm, ccw, Raman Data Processed
Mineral: Tremolite
Rruff sample: R050173
Ideal chemistry: [box]Ca_2_Mg_5_Si_8_O_22_(OH)_2_
Locality: Fort Dauphin, Madagascar
Source: Marcus Origlieri
Description: Mass of colorless acicular crystals
Measured chemistry: [box]Ca_2.00_Mg_5.00_Si_8.00_O_22_(OH)_2_
Pin_id: L00486
Orientation: Laser parallel to -c* (0 0 -1). Fiducial mark perpendicular to laser is parallel to a [1 0 0]
Raman shift (cm-1)	intensity
103.72	0
107.901	189.225
112.079	1364.61
116.256	2382.2
120.43	2725.64
124.602	1478.21
128.772	516.676
132.94	184.293
137.106	46.633
141.27	160.403
145.432	236.612
149.592	100.523
153.749	705.404
157.905	3880.21
162.059	4369.83
166.21	1480.54
170.36	1193.09
174.507	7575.31
178.652	12604.1
182.796	2362.37
186.937	303.129
191.076	408.002
195.213	446.681
199.349	286.913
203.482	411.432
207.613	719.074
211.742	1679.01
215.869	4299.1
219.994	16520.8
224.117	19701.7
228.237	10548.9
232.356	13144.5
236.473	5527.74
240.588	1139.15
244.701	1299.38
248.811	4308.65
252.92	2747.09
257.027	794.728
261.131	2191.54
265.234	1117.41
269.334	248.759
273.433	301.491
277.53	109.144
281.624	130.169
285.717	327.275
289.807	720.127
293.896	147.354
297.982	425.365
302.067	1277.47
306.149	978.461
310.23	568.609
314.308	396.814
318.385	113.341
322.459	201.834
326.532	397.062
330.602	1312.39
334.671	1076.4
338.737	1090.31
342.802	2692.54
346.864	4100.54
350.925	6439.98
354.983	4116.81
359.04	2710.58
363.094	3776.05
367.147	9484.6
371.197	9009.57
375.246	4411.24
379.293	2413.85
383.337	1726.44
387.38	2917.3
391.421	7375.02
395.459	8308.89
399.496	2616.44
403.531	1378.58
407.564	1439.96
411.594	3222.92
415.623	5103.7
419.65	3212.01
423.675	1345.47
427.698	831.125
431.719	1363.32
435.738	2602.5
439.755	796.197
443.77	317.263
447.783	148.595
451.795	306.517
455.804	544.95
459.811	1269.55
463.816	1774.53
467.82	969.283
471.821	358.826
475.821	136.071
479.818	234.996
483.814	383.562
487.808	226.266
491.799	197.688
495.789	100.076
499.777	110.035
503.763	391.597
507.747	802.677
511.729	1933.39
515.709	2503.85
519.687	2194.18
523.663	2134.5
527.638	3454.77
531.61	2614.89
535.581	984.778
539.549	454.357
543.516	223.585
547.48	22.414
551.443	9.196
555.404	91.232
559.363	76.209
563.32	3.21
567.275	39.791
571.228	25.92
575.18	51.656
579.129	87.061
583.076	202.155
587.022	106.607
590.966	8.682
594.907	13.176
598.847	132.952
602.785	65.525
606.721	75.69
610.655	56.749
614.588	99.312
618.518	206.867
622.446	253.628
626.373	341.382
630.298	531.348
634.22	686.19
638.141	970.351
642.06	1546.4
645.977	2615.55
649.892	4831.69
653.806	6334.01
657.717	5418.17
661.627	6778.45
665.534	12746.6
669.44	32090.2
673.344	51769.7
677.246	29316.1
681.146	12314.3
685.045	7356.26
688.941	7096.55
692.836	4935.29
696.728	2909.25
700.619	1821.27
704.508	1369.99
708.395	1129.12
712.28	1124.59
716.164	801.502
720.045	619.442
723.925	665.504
727.802	690.987
731.678	585.038
735.552	1025.07
739.424	2182.23
743.295	1658.75
747.163	1413.01
751.03	1646.41
754.895	950.392
758.758	440.696
762.619	242.02
766.478	342.915
770.335	145.527
774.191	29.312
778.044	73.61
781.896	152.379
785.746	220.988
789.594	104.033
793.441	196.76
797.285	20.899
801.128	70.965
804.969	132.368
808.808	153.397
812.645	55.963
816.48	14.328
820.314	105.867
824.145	183.277
827.975	172.173
831.803	49.835
835.629	112.351
839.454	55.173
843.276	18.65
847.097	17.613
850.916	56.53
854.733	58.648
858.548	73.684
862.362	58.41
866.173	152.863
869.983	17.111
873.791	131.068
877.597	94.754
881.402	91.826
885.204	38.848
889.005	53.754
892.804	196.078
896.601	178.117
900.397	289.889
904.19	481.43
907.982	532.754
911.772	623.861
915.56	744.598
919.347	1205.01
923.131	2184.34
926.914	5331.77
930.695	6770.16
934.474	3547.05
938.252	2054.48
942.027	2351.97
945.801	3909.03
949.573	2709.96
953.344	1072.67
957.112	835.475
960.879	470.525
964.644	240.391
968.407	352.074
972.168	246.826
975.928	381.078
979.686	344.381
983.442	315.791
987.196	238.682
990.949	364.119
994.699	364.121
998.448	338.805
1002.2	645.871
1005.94	721.395
1009.68	1217
1013.43	1720.78
1017.17	3629.32
1020.9	4817.59
1024.64	8182.42
1028.38	13307.4
1032.11	7016.9
1035.84	3077.53
1039.57	2002.87
1043.3	1748.08
1047.02	2320.53
1050.75	3707.3
1054.47	8573.76
1058.19	20788.5
1061.91	15211.9
1065.63	7105.68
1069.34	5670.24
1073.06	3263.02
1076.77	2115.47
1080.48	1776.73
1084.19	4208.22
1087.89	3589.53
1091.6	1481.64
1095.3	750.609
1099.01	650.957
1102.7	241.275
1106.4	352.707
1110.1	153.09
1113.8	221.453
1117.49	257.014
1121.18	704.77
1124.87	170.715
1128.56	215.619
1132.24	40.178
1135.93	74.41
1139.61	147.566
1143.29	33.104
1146.97	7.76
1150.65	197.656
1154.32	102.463
1158	354.785
1161.67	55.951
1165.34	82.023
1169.01	179.93
1172.67	162.236
1176.34	135.307
1180	240.668
1183.67	179.393
1187.33	132.896
1190.98	299.732
1194.64	230.963
1198.3	252.289
1201.95	481.354
1205.6	535.336
1209.25	422.049
1212.9	205.543
1216.55	366.906
1220.19	376.531
1223.84	474.305
1227.48	526.932
1231.12	497.568
1234.76	281.828
1238.39	675.65
1242.03	445.547
1245.66	396.145
1249.29	308.74
1252.92	286.783
1256.55	370.293
1260.17	670.594
1263.8	421.246
1267.42	691.094
1271.04	629.732
1274.66	351.912
1278.28	393.496
1281.9	218.055
1285.51	308.865
1289.13	99.207
1292.74	187.812
1296.35	247.174
1299.95	311.648
1303.56	356.932
1307.16	144.885
1310.77	139.178
1314.37	116.896
1317.97	7.836
1321.57	313.549
1325.16	52.869
1328.76	42.668
1332.35	156.324
1335.94	120.328
1339.53	520.955
1343.12	10.104
1346.71	226.221
1350.29	221.152
1353.87	284.023
1357.45	95.957
1361.03	413.918
1364.61	311.156
1368.19	216.039
1371.76	229.244
1375.34	169.432
1378.91	158.988
1382.48	291.91
1386.05	138.959
1389.61	293.039
1393.18	297.127
1396.74	447.666
1400.3	595.666
1403.86	423.578
1407.42	328.1
1410.98	224.895
1414.53	412.295
1418.08	292.684
1421.64	154.941
1425.19	207.688
1428.73	367.551
1432.28	470.695
1435.83	190.891
1439.37	469.75
1442.91	143.676
1446.45	560.727
1449.99	316.453
1453.53	477.137
1457.06	246.914
1460.6	325.453
1464.13	453.473
1467.66	4.992
1471.19	618.105
1474.72	411.152
1478.24	468.062
1481.77	341.109
1485.29	350.914
1488.81	337.926
1492.33	384.84
1495.85	35.43
1499.36	480.719
1502.88	3.48
1506.39	203.773
1509.9	780
1513.41	146.863
1516.92	156.516
