Measurement: Raman, 514 nm, ccw, Raman Data Processed
Mineral: Tremolite
Rruff sample: R040045
Ideal chemistry: [box]Ca_2_Mg_5_Si_8_O_22_(OH)_2_
Locality: Gouverneur, New York, USA
Source: University of Arizona Mineral Museum
Description: Group of colorless acicular single crystals
Measured chemistry: Ca_2.01_(Mg_0.99_Fe_0.01_)_5_(Si_0.99_Fe_0.01_)_8_O_22_(OH)_2_
Pin_id: M00236
Orientation: Laser parallel to a [1 0 0]. Fiducial mark perpendicular to laser is parallel to -b* (0 -1 0)
Raman shift (cm-1)	intensity
131.615	0
134.39	53.237
137.164	881.464
139.937	2276.11
142.709	3118.66
145.48	2360.17
148.25	1211.57
151.019	370.227
153.788	13.812
156.555	178.899
159.322	618.187
162.088	575.168
164.853	5.657
167.617	87.898
170.38	293.354
173.142	857.856
175.904	3122.89
178.664	5408.45
181.424	3224.52
184.183	1031.04
186.94	347.941
189.698	165.185
192.454	322.699
195.209	160.408
197.963	38.321
200.717	62.791
203.47	145.094
206.221	56.82
208.972	191.697
211.722	400.438
214.472	919.491
217.22	1358.94
219.967	2608.91
222.714	4309.24
225.46	3449.81
228.204	2150.58
230.948	2421.4
233.692	2542.25
236.434	1633.12
239.175	744.018
241.916	434.956
244.655	315.925
247.394	766.92
250.132	1407.63
252.869	1127.68
255.605	587.854
258.34	338.178
261.075	168.854
263.808	399.913
266.541	291.224
269.273	202.897
272.004	14.664
274.734	66.565
277.463	116.539
280.192	110.458
282.919	122.431
285.646	294.356
288.372	886.316
291.097	1108.69
293.821	541.431
296.544	238.312
299.266	413.803
301.988	619.645
304.709	560.864
307.428	426.922
310.147	282.053
312.865	251.111
315.583	272.135
318.299	226.016
321.015	298.127
323.729	101.703
326.443	345.158
329.156	677.523
331.868	1418.72
334.579	1510.25
337.29	901.832
339.999	953.48
342.708	1015.36
345.416	837.127
348.123	668.943
350.829	740.809
353.534	892.607
356.239	744.33
358.942	466.236
361.645	666.885
364.347	1221.87
367.048	3043.48
369.748	4628.31
372.448	3070.21
375.146	1675.15
377.844	980.041
380.54	882.209
383.236	965.041
385.932	1464.23
388.626	2550.88
391.319	5353.83
394.012	9037.1
396.704	6810
399.394	3149.58
402.084	1835.16
404.774	1198.46
407.462	1161.59
410.15	1264.98
412.836	2271.95
415.522	3065.15
418.207	2567.9
420.891	1530.79
423.575	823.305
426.257	444.412
428.939	268.125
431.619	290.518
434.299	399.609
436.978	482.047
439.657	445.33
442.334	258.42
445.011	81.66
447.687	294.439
450.361	256.629
453.036	239.48
455.709	22.312
458.381	124.521
461.053	217.113
463.724	209.082
466.394	41.639
469.063	53.328
471.731	24.965
474.398	96.551
477.065	308.098
479.731	59.611
482.396	281.1
485.06	632.51
487.723	263.979
490.385	335.467
493.047	386.967
495.708	138.467
498.368	159.965
501.027	101.465
503.685	151.492
506.342	244.49
508.999	435.98
511.655	523.004
514.31	508.9
516.964	370.326
519.617	341.727
522.27	447.766
524.921	384.516
527.572	176.102
530.222	207.84
532.871	329.57
535.52	221.236
538.167	312.824
540.814	24.379
543.46	145.893
546.105	222.676
548.749	38.49
551.393	160.389
554.035	20.555
556.677	108.553
559.318	107.826
561.958	62.883
564.597	33.287
567.236	6.371
569.874	66.09
572.511	54.074
575.147	144.207
577.782	304.475
580.416	284.637
583.05	234.625
585.683	254.559
588.315	154.471
590.946	114.326
593.576	81.984
596.206	83.955
598.834	10.434
601.462	43.354
604.089	122.77
606.715	172.068
609.341	170.783
611.965	50.293
614.589	246.076
617.212	35.768
619.834	175.715
622.456	105.289
625.076	328.629
627.696	468.316
630.315	516.756
632.933	586.172
635.551	686.127
638.167	994.805
640.783	834.691
643.398	1044.06
646.012	1101.88
648.625	1194.59
651.237	1524.36
653.849	1817.01
656.46	1917.69
659.07	2446.42
661.679	3522.91
664.288	5120.87
666.895	8740.21
669.502	15678.9
672.108	26547.7
674.713	29756.3
677.318	20525.9
679.921	11694.1
682.524	6609.43
685.126	4158.98
687.727	2856.54
690.328	1953.88
692.927	1529.51
695.526	1366.89
698.124	885.207
700.721	723.492
703.318	880.1
705.913	636.754
708.508	898.742
711.102	895.539
713.695	616.029
716.288	195.777
718.879	487.492
721.47	262.584
724.06	378.412
726.649	571.205
729.238	378.795
731.825	208.857
734.412	455.01
736.998	671.703
739.584	776.805
742.168	1006.53
744.752	1182.27
747.334	1137.17
749.916	1435.62
752.498	1581.28
755.078	1025.47
757.658	652.379
760.237	392.535
762.815	276.219
765.392	240.467
767.969	253.072
770.544	306.668
773.119	389.422
775.693	142.855
778.267	255.84
780.839	88.734
783.411	381.867
785.982	34.867
788.552	47.721
791.122	360.424
793.69	282.986
796.258	415.402
798.825	122.332
801.391	30.371
803.957	51.885
806.522	35.439
809.085	176.945
811.649	109.572
814.211	100.609
816.772	481.201
819.333	138.086
821.893	219.955
824.452	171.867
827.011	143.371
829.568	239.562
832.125	379.166
834.681	338.904
837.236	59.49
839.791	259.43
842.345	218.832
844.898	369.248
847.45	260.447
850.001	29.957
852.552	239.473
855.102	1.352
857.651	207.232
860.199	205.676
862.746	44.041
865.293	151.742
867.839	279.318
870.384	356.559
872.928	343.928
875.472	501.123
878.015	78.158
880.557	15.031
883.098	38.229
885.639	128.168
888.178	134.604
890.717	340.777
893.256	186.938
895.793	222.947
898.33	268.805
900.865	274.527
903.401	73.225
905.935	125.514
908.468	450.766
911.001	435.76
913.533	590.525
916.064	365.121
918.595	709.258
921.124	873.227
923.653	1097.14
926.182	1520.38
928.709	2362.39
931.236	2485.48
933.761	2317.53
936.286	1779.89
938.811	1121.64
941.334	743.389
943.857	665.463
946.379	837.572
948.9	848.623
951.421	420.723
953.94	449.334
956.459	509.801
958.978	309.762
961.495	210.188
964.012	198.799
966.527	125.828
969.043	52.908
971.557	147.818
974.071	78.52
976.583	218.207
979.095	257.609
981.607	397.496
984.117	527.559
986.627	137.234
989.136	227.656
991.644	285.664
994.152	93.953
996.659	333.281
999.165	99.57
1001.67	332.734
1004.17	139.969
1006.68	171.156
1009.18	165.988
1011.68	155.945
1014.18	295.676
1016.68	284.258
1019.18	627.625
1021.68	975.543
1024.18	1541.09
1026.68	2119.79
1029.18	3293.05
1031.67	3292
1034.17	1832.1
1036.66	1001.57
1039.16	771.281
1041.65	680.82
1044.14	870.211
1046.63	819.457
1049.12	698.578
1051.62	967.562
1054.11	1235.92
1056.59	2051.76
1059.08	2744.4
1061.57	3181
1064.06	2554.1
1066.54	1958.86
1069.03	2368.6
1071.51	2082.09
1073.99	1515.27
1076.47	1075.18
1078.96	717.25
1081.44	611.355
1083.92	466.07
1086.4	1131.78
1088.88	527.426
1091.36	263.039
1093.83	288.371
1096.31	513.285
1098.79	347.73
1101.26	131.672
1103.73	55.082
1106.21	598.52
1108.68	292.684
1111.15	178.117
1113.62	45.984
1116.1	260.496
1118.57	537.293
1121.04	14.219
1123.5	181.312
1125.97	278.754
1128.44	361.762
1130.9	22.074
1133.37	25.91
1135.83	137.785
1138.3	153.566
1140.76	153.781
1143.22	332.766
1145.69	376.5
1148.15	1.012
1150.61	0
