Measurement: Raman, 514 nm, ccw, Raman Data Processed
Mineral: Tremolite
Rruff sample: R040045
Ideal chemistry: [box]Ca_2_Mg_5_Si_8_O_22_(OH)_2_
Locality: Gouverneur, New York, USA
Source: University of Arizona Mineral Museum
Description: Group of colorless acicular single crystals
Measured chemistry: Ca_2.01_(Mg_0.99_Fe_0.01_)_5_(Si_0.99_Fe_0.01_)_8_O_22_(OH)_2_
Pin_id: L00397
Orientation: Laser parallel to [-1 0 -1]. Fiducial mark perpendicular to laser is parallel to -b* (0 -1 0)
Raman shift (cm-1)	intensity
103.82	0
107.995	198.506
112.168	491.814
116.339	1150.14
120.508	2847.02
124.675	3658.07
128.84	1554.77
133.003	443.08
137.164	208.476
141.323	98.658
145.48	24.454
149.635	47.141
153.788	87.172
157.939	166.026
162.088	224.246
166.235	382.165
170.38	750.017
174.523	3507.89
178.664	9425.85
182.803	5394.02
186.94	1111.13
191.076	633.012
195.209	592.99
199.34	423.956
203.47	305.959
207.597	568.839
211.722	922.734
215.846	1667.54
219.967	5672.94
224.087	10399
228.204	5126.01
232.32	2663.38
236.434	2090.97
240.545	1048.78
244.655	656.811
248.763	1105.42
252.869	1604.58
256.973	844.127
261.075	104.065
265.175	285.75
269.273	229.909
273.369	47.889
277.463	197.441
281.556	464.849
285.646	963.657
289.734	2077.08
293.821	1258.22
297.905	652.209
301.988	983.853
306.069	725.827
310.147	371.589
314.224	445.687
318.299	475.5
322.372	317.801
326.443	390.129
330.512	1552.54
334.579	2354.93
338.645	1014.71
342.708	617.578
346.769	978.41
350.829	1533.06
354.887	1673.34
358.942	1243.64
362.996	2144.04
367.048	7204.54
371.098	12245.1
375.146	4635.97
379.192	1746.83
383.236	1427.86
387.279	1915.26
391.319	4382.22
395.358	7544.37
399.394	3621.24
403.429	1256.62
407.462	751.623
411.493	1288.78
415.522	2164.44
419.549	1775.86
423.575	636.734
427.598	419.324
431.619	528.092
435.639	305.219
439.657	47.896
443.673	207.459
447.687	356.588
451.699	237.408
455.709	11.104
459.717	199.256
463.724	180.783
467.728	30.875
471.731	20.525
475.732	140.012
479.731	229.641
483.728	478.85
487.723	278.092
491.716	157.283
495.708	136.375
499.697	265.316
503.685	254.016
507.671	7.578
511.655	310.543
515.637	538.613
519.617	846.764
523.596	624.793
527.572	372.703
531.547	470.668
535.52	428.58
539.491	166.355
543.46	55.924
547.427	118.537
551.393	208.355
555.356	234.945
559.318	201.238
563.278	137.219
567.236	93.121
571.192	318.852
575.147	64.227
579.099	139.332
583.05	174.574
586.999	559.453
590.946	584.631
594.891	249.998
598.834	64.717
602.776	130.113
606.715	424.768
610.653	305.574
614.589	357.188
618.523	102.656
622.456	316.719
626.386	551.193
630.315	682.531
634.242	243.436
638.167	583.045
642.09	791.125
646.012	1630.14
649.931	2944.91
653.849	4170.67
657.765	4387.94
661.679	5070.26
665.592	8581.95
669.502	19649.1
673.411	39446.7
677.318	32297.2
681.223	13838.8
685.126	6412.55
689.028	3931.53
692.927	2343.39
696.825	1740.05
700.721	1502.74
704.616	1310.38
708.508	1131.91
712.399	909.195
716.288	610.754
720.175	823.352
724.06	789.564
727.944	724.17
731.825	445.609
735.705	388.455
739.584	842.66
743.46	1237.41
747.334	1590.03
751.207	1512.67
755.078	978.963
758.947	677.229
762.815	819.41
766.68	578.494
770.544	376.342
774.406	323.953
778.267	131.297
782.125	198.73
785.982	292.648
789.837	172.35
793.69	41.203
797.542	215.777
801.391	148.875
805.239	383.246
809.085	247.916
812.93	152.832
816.772	57.328
820.613	154.863
824.452	309.451
828.29	703.811
832.125	238.479
835.959	131.359
839.791	266.438
843.621	224.836
847.45	414.348
851.277	323.672
855.102	463.021
858.925	221.004
862.746	157.305
866.566	313.145
870.384	568.584
874.2	313.582
878.015	32.395
881.828	60.959
885.639	393.848
889.448	515.922
893.256	507.578
897.061	688.689
900.865	419.434
904.668	269.641
908.468	479.324
912.267	488.562
916.064	547.18
919.86	735.195
923.653	991.463
927.445	1406.28
931.236	2251.03
935.024	2094.83
938.811	1597.55
942.596	1182.67
946.379	799.123
950.161	847.107
953.94	683.273
957.719	581.457
961.495	861.012
965.27	545.709
969.043	378.076
972.814	296.48
976.583	101.555
980.351	96.4
984.117	408.771
987.882	595.535
991.644	694.891
995.405	283.906
999.165	163.496
1002.92	126.918
1006.68	715.457
1010.43	1083.82
1014.18	1000.87
1017.93	1050.8
1021.68	1567.6
1025.43	3282.05
1029.18	7850.3
1032.92	6721.01
1036.66	2913.94
1040.4	1659.38
1044.14	681.582
1047.88	1143.97
1051.62	1263.66
1055.35	2201.51
1059.08	4668.72
1062.81	5697.22
1066.54	4206.03
1070.27	4879.84
1073.99	2851.92
1077.72	1612.5
1081.44	1270.43
1085.16	1465.95
1088.88	852.238
1092.59	758.07
1096.31	463.672
1100.02	193.988
1103.73	218.297
1107.44	198.078
1111.15	875.727
1114.86	810.938
1118.57	878.711
1122.27	558.426
1125.97	449.98
1129.67	11.09
1133.37	247.113
1137.07	594.719
1140.76	856.652
1144.45	678.262
1148.15	290.125
1151.84	292.273
1155.53	65.258
1159.21	529.547
1162.9	364.461
1166.58	790.199
1170.26	1037.66
1173.94	979.16
1177.62	692.812
1181.3	501.77
1184.97	78.832
1188.65	286.73
1192.32	809.539
1195.99	815.785
1199.66	1286.32
1203.33	1188.01
1206.99	632.375
1210.65	37.422
1214.32	364.352
1217.98	396.012
1221.64	578.98
1225.29	496.211
1228.95	1087.93
