Measurement: Raman, 514 nm, ccw, Raman Data Processed
Mineral: Tremolite
Rruff sample: R050173
Ideal chemistry: [box]Ca_2_Mg_5_Si_8_O_22_(OH)_2_
Locality: Fort Dauphin, Madagascar
Source: Marcus Origlieri
Description: Mass of colorless acicular crystals
Measured chemistry: [box]Ca_2.00_Mg_5.00_Si_8.00_O_22_(OH)_2_
Pin_id: L00486
Orientation: Laser parallel to -c* (0 0 -1). Fiducial mark perpendicular to laser is parallel to a [1 0 0]
Raman shift (cm-1)	intensity
89.77	0
93.958	20.368
98.143	125.166
102.326	251.507
106.508	337.347
110.687	801.631
114.864	3117.52
119.039	4126.77
123.211	4173.27
127.382	3932.09
131.551	1710.82
135.718	429.632
139.882	865.625
144.045	1004.38
148.205	636.896
152.364	785.42
156.52	4167.18
160.674	6212.9
164.826	1873.44
168.977	942.403
173.125	4474.47
177.271	10664.2
181.415	4780.15
185.557	1240.21
189.697	1307.91
193.835	1866.2
197.97	2344.97
202.104	2968.91
206.236	3253.33
210.366	3824.9
214.493	5014.76
218.619	10176.6
222.742	16707.7
226.864	7918.05
230.984	7237.75
235.101	4696.74
239.216	1115.04
243.33	602.779
247.441	1920.09
251.551	2337.36
255.658	760.776
259.763	1242.49
263.867	2457.53
267.968	393.406
272.067	230.636
276.164	285.562
280.26	251.707
284.353	78.523
288.444	332.782
292.533	63.254
296.62	262.885
300.705	1081.71
304.789	969.582
308.87	396.276
312.949	191.802
317.026	176.125
321.101	179.216
325.174	361.197
329.246	672.218
333.315	782.366
337.382	662.187
341.447	1522.49
345.51	2391.06
349.571	4084.81
353.63	3915.52
357.688	2255.22
361.743	1824.31
365.796	3332.84
369.847	5130.4
373.897	4727.14
377.944	3363.39
381.989	1679.91
386.032	1527.06
390.074	3615.44
394.113	6544.02
398.151	3152.77
402.186	1422.47
406.219	966.774
410.251	1585.8
414.28	3232.36
418.308	2527.72
422.334	1212.54
426.357	798.37
430.379	1031.94
434.399	1636.98
438.416	1263.29
442.432	492.881
446.446	719.309
450.458	937.305
454.468	2326.44
458.476	6066.97
462.482	12641.6
466.486	9298.98
470.488	3959.92
474.488	2096.95
478.486	1115.39
482.482	850.282
486.477	733.365
490.469	600.257
494.459	462.58
498.448	271.426
502.434	283.989
506.419	745.498
510.402	1276.62
514.383	1617.42
518.361	1507.91
522.338	1438.21
526.313	2858.33
530.286	3318.14
534.257	1297.79
538.227	607.225
542.194	436.449
546.159	265.383
550.123	73.941
554.084	162.111
558.044	60.152
562.001	202.873
565.957	3.711
569.911	19.75
573.863	45.379
577.813	110.621
581.761	4.504
585.707	10.072
589.651	153.959
593.594	7.961
597.534	102.479
601.473	156.893
605.409	133.166
609.344	49.723
613.277	31.873
617.208	320.486
621.137	77.004
625.064	207.85
628.99	429.869
632.913	570.326
636.834	634.002
640.754	1179.37
644.672	1584.68
648.588	2249.95
652.502	3393.12
656.414	3628.67
660.324	4622.4
664.232	7646.84
668.138	17541.5
672.043	37805.5
675.946	28690.1
679.846	12022.8
683.745	6765.99
687.642	6317.99
691.538	6284.85
695.431	3654.81
699.322	2110.2
703.212	1419.11
707.1	1166.34
710.985	981.264
714.869	683.486
718.751	482.961
722.632	581.264
726.51	545.896
730.386	520.271
734.261	685.99
738.134	1140.27
742.005	1151.4
745.874	733.082
749.741	1215.6
753.607	839.312
757.47	223.729
761.332	383.443
765.192	12.127
769.05	209.939
772.906	279.152
776.76	177.533
780.613	173.803
784.463	45.117
788.312	73.008
792.159	300.588
796.004	197.582
799.847	184.105
803.689	220.174
807.528	345.807
811.366	101.012
815.202	55.76
819.036	51.457
822.868	25.398
826.699	10.379
830.527	62.963
834.354	45.412
838.179	107.6
842.002	49.299
845.824	70.098
849.643	9.875
853.461	99.293
857.277	138.256
861.091	176.801
864.903	254.939
868.713	62.76
872.522	150.207
876.329	157.404
880.134	144.299
883.937	110.822
887.739	96.984
891.538	202.797
895.336	148.291
899.132	393.502
902.926	348.398
906.718	343.055
910.509	356.979
914.298	770.639
918.085	681.561
921.87	1519.39
925.653	3529.27
929.435	6089.92
933.215	3853.63
936.993	2045.97
940.769	1785.1
944.544	2127.68
948.316	1796.8
952.087	976.127
955.856	615.492
959.623	417.316
963.389	355.762
967.153	164.547
970.915	254.746
974.675	210.963
978.433	169.566
982.19	199.723
985.945	148.363
989.698	163.654
993.449	337.668
997.199	337.848
1000.95	583.857
1004.69	528.33
1008.44	643.268
1012.18	1247.28
1015.92	2164.61
1019.66	3611.89
1023.4	3854.34
1027.13	6402.72
1030.87	4608.51
1034.6	2235.4
1038.33	1573.28
1042.06	1809.38
1045.78	2008.41
1049.51	3176.95
1053.23	6163.12
1056.95	16631.1
1060.67	19658.9
1064.39	8106.06
1068.11	4552.7
1071.82	2878.21
1075.53	1623.38
1079.24	1207.54
1082.95	1109.79
1086.66	1125.04
1090.37	890.262
1094.07	774.311
1097.77	387.68
1101.47	290.094
1105.17	132.557
1108.87	194.996
1112.56	46.09
1116.26	53.477
1119.95	975.102
1123.64	46.615
1127.33	45.426
1131.01	46.582
1134.7	180.484
1138.38	88.109
1142.06	189.637
1145.74	25.234
1149.42	143.727
1153.1	424.078
1156.77	960.303
1160.44	605.318
1164.12	368.564
1167.79	137.885
1171.45	126.33
1175.12	231.988
1178.78	216.01
1182.45	227.01
1186.11	368.043
1189.77	349.229
1193.42	484.523
1197.08	555.955
1200.73	417.775
1204.38	343.764
1208.04	554.971
1211.68	592.074
1215.33	659.299
1218.98	435.145
1222.62	620.535
1226.26	762.01
1229.9	495.512
1233.54	504.502
1237.18	398.492
1240.82	583.445
1244.45	637.883
1248.08	441.242
1251.71	591.816
1255.34	490.961
1258.97	306.246
1262.59	630.959
1266.22	328.543
1269.84	391.598
1273.46	700.643
1277.08	706.877
1280.69	245.377
1284.31	62.381
1287.92	547.066
1291.53	361.824
1295.14	66.205
1298.75	281.539
1302.36	446.029
1305.96	398.006
1309.57	45.746
1313.17	29.504
1316.77	92.52
1320.37	61.758
1323.96	80.402
1327.56	94.074
1331.15	89.289
1334.74	231.766
1338.34	220.203
1341.92	147.84
1345.51	73.227
1349.1	176.617
1352.68	274.617
1356.26	179.852
1359.84	98.645
1363.42	135.613
1367	322.098
1370.57	67.273
1374.14	421.531
1377.72	391.289
1381.29	618.434
1384.86	346.344
1388.42	175.23
1391.99	408.832
1395.55	282.77
1399.11	149.57
1402.67	226.496
1406.23	124.867
1409.79	679.84
1413.35	375.457
1416.9	454.016
1420.45	424.254
1424	386.496
1427.55	78.875
1431.1	467.223
1434.64	299.754
1438.19	75.168
1441.73	678.176
1445.27	546.516
1448.81	641.758
1452.35	643.656
1455.88	566.379
1459.42	440.902
1462.95	544.57
1466.48	858.508
1470.01	219.734
1473.54	243.203
1477.07	294.75
1480.59	601.789
1484.11	450.797
1487.63	457.047
1491.15	421.898
1494.67	404.188
1498.19	363.262
1501.7	355.309
1505.22	512.031
1508.73	329.461
1512.24	10.828
1515.75	166.781
1519.26	236.652
1522.76	0.145
