Measurement: Raman, 514 nm, ccw, Raman Data Processed
Mineral: Tremolite
Rruff sample: R040045
Ideal chemistry: [box]Ca_2_Mg_5_Si_8_O_22_(OH)_2_
Locality: Gouverneur, New York, USA
Source: University of Arizona Mineral Museum
Description: Group of colorless acicular single crystals
Measured chemistry: Ca_2.01_(Mg_0.99_Fe_0.01_)_5_(Si_0.99_Fe_0.01_)_8_O_22_(OH)_2_
Pin_id: S00030
Orientation: Laser parallel to c [0 0 1]. Fiducial mark perpendicular to laser is parallel to -b* (0 -1 0)
Raman shift (cm-1)	intensity
128.84	0
131.615	130.607
134.39	57.64
137.164	180.568
139.937	254.571
142.709	372.607
145.48	290.694
148.25	316.365
151.019	388.021
153.788	484.472
156.555	1064.85
159.322	1378.48
162.088	1134.88
164.853	573.643
167.617	404.787
170.38	497.748
173.142	1092.28
175.904	1808.17
178.664	1645.34
181.424	993.617
184.183	422.871
186.94	183.01
189.698	123.971
192.454	245.693
195.209	158.127
197.963	211.242
200.717	55.02
203.47	173.496
206.221	118.359
208.972	554.18
211.722	690.23
214.472	1326.48
217.22	2252.87
219.967	3779.74
222.714	4286.94
225.46	4134.62
228.204	4763.54
230.948	5571.42
233.692	4399.57
236.434	2757.98
239.175	1406.66
241.916	865.613
244.655	1324.82
247.394	1684.28
250.132	1893.99
252.869	1463.94
255.605	894.117
258.34	644.521
261.075	595.156
263.808	496.244
266.541	277.785
269.273	269.609
272.004	61.662
274.734	116.094
277.463	6.406
280.192	129.088
282.919	11.996
285.646	24.846
288.372	78.486
291.097	120.787
293.821	137.281
296.544	144.086
299.266	331.414
301.988	308.975
304.709	418.307
307.428	388.646
310.147	321.131
312.865	164.701
315.583	75.465
318.299	46.613
321.015	248.1
323.729	29.891
326.443	101.959
329.156	164.285
331.868	116.846
334.579	249.625
337.29	412.604
339.999	485.844
342.708	479.191
345.416	872.703
348.123	1196.37
350.829	1160.19
353.534	1114.14
356.239	898.23
358.942	562.439
361.645	716.768
364.347	1481.21
367.048	2705.72
369.748	2840.32
372.448	2315.03
375.146	1489.82
377.844	1074.69
380.54	739.654
383.236	634.693
385.932	769.812
388.626	1545
391.319	2552.03
394.012	3068.94
396.704	2104.32
399.394	1188.18
402.084	648.24
404.774	566.395
407.462	703.598
410.15	1089.43
412.836	1997.59
415.522	1963.54
418.207	1579.52
420.891	791.992
423.575	438.193
426.257	194.236
428.939	290.547
431.619	427.031
434.299	821.102
436.978	698.213
439.657	526.318
442.334	162.252
445.011	193.873
447.687	50.178
450.361	18.85
453.036	86.572
455.709	72.877
458.381	24.963
461.053	13.559
463.724	23.869
466.394	29.973
469.063	63.238
471.731	74.734
474.398	181.311
477.065	157.494
479.731	63.494
482.396	149.113
485.06	324.131
487.723	149.912
490.385	45.705
493.047	271.488
495.708	237.27
498.368	123.031
501.027	238.77
503.685	124.521
506.342	40.273
508.999	375.986
511.655	531.672
514.31	497.318
516.964	672.918
519.617	658.465
522.27	553.971
524.921	1129.56
527.572	1005.13
530.222	1110.65
532.871	866.129
535.52	621.541
538.167	346.898
540.814	112.229
543.46	157.504
546.105	177.014
548.749	127.873
551.393	56.844
554.035	118.012
556.677	106.627
559.318	41.734
561.958	222.807
564.597	7.561
567.236	152.488
569.874	3.244
572.511	91.273
575.147	275.016
577.782	129.938
580.416	203.701
583.05	127.006
585.683	190.193
588.315	143.273
590.946	73.771
593.576	8.922
596.206	91.449
598.834	213.838
601.462	3.85
604.089	78.188
606.715	19.408
609.341	91.082
611.965	7.123
614.589	39.053
617.212	40.459
619.834	26.52
622.456	8.928
625.076	37.424
627.696	15.875
630.315	214.227
632.933	144.943
635.551	198.891
638.167	449.918
640.783	313.619
643.398	594.199
646.012	526.25
648.625	759.66
651.237	1100.55
653.849	1262.71
656.46	1322.38
659.07	1582.66
661.679	2051.81
664.288	2799.93
666.895	4830.43
669.502	8040.79
672.108	11859.4
674.713	11247.3
677.318	8105.86
679.921	4886.65
682.524	2993.19
685.126	2242.76
687.727	1911.69
690.328	1849.95
692.927	1517.71
695.526	1237.23
698.124	778.557
700.721	595.73
703.318	845.365
705.913	451.365
708.508	544.936
711.102	603.998
713.695	323.637
716.288	344.047
718.879	270.398
721.47	211.66
724.06	355.797
726.649	527.715
729.238	413.367
731.825	137.139
734.412	361.262
736.998	538.652
739.584	590.299
742.168	645.441
744.752	737.055
747.334	661.172
749.916	700.752
752.498	580.609
755.078	582.803
757.658	489.584
760.237	296.996
762.815	304.545
765.392	533.729
767.969	187.898
770.544	374.865
773.119	231.768
775.693	217.186
778.267	400.328
780.839	205.826
783.411	256.178
785.982	183.33
788.552	9.746
791.122	297.26
793.69	204.248
796.258	260.943
798.825	17.361
801.391	16.514
803.957	179.299
806.522	5.082
809.085	250.68
811.649	66.656
814.211	118.719
816.772	436.449
819.333	92.164
821.893	77.555
824.452	203.703
827.011	320.328
829.568	353.684
832.125	50.961
834.681	75.492
837.236	107.488
839.791	371.383
842.345	153.84
844.898	460.172
847.45	232.332
850.001	25.902
852.552	254.422
855.102	215.047
857.651	185.785
860.199	14.785
862.746	184.156
865.293	63.141
867.839	490.969
870.384	269.25
872.928	397.07
875.472	604.438
878.015	192.105
880.557	39.707
883.098	166.48
885.639	72.441
888.178	219.258
890.717	496.047
893.256	62.723
895.793	299.18
898.33	285.43
900.865	361.52
903.401	687.457
905.935	3.211
908.468	488.758
911.001	404
913.533	468.562
916.064	502.93
918.595	486.617
921.124	889.297
923.653	1082.79
926.182	1514.49
928.709	2092.48
931.236	2154.56
933.761	2116.57
936.286	1228.49
938.811	898.996
941.334	887.363
943.857	1018.53
946.379	1358.45
948.9	1195.96
951.421	703.879
953.94	750.523
956.459	360.324
958.978	526.848
961.495	396.203
964.012	344.086
966.527	143.117
969.043	32.945
971.557	100.949
974.071	27.73
976.583	85.422
979.095	35.855
981.607	392.715
984.117	371.426
986.627	160.309
989.136	58.922
991.644	96.336
994.152	191.707
996.659	219.523
999.165	204.969
1001.67	364.254
1004.17	141.293
1006.68	86
1009.18	351.148
1011.68	367.77
1014.18	515.477
1016.68	553.695
1019.18	1209.67
1021.68	1586.65
1024.18	2154.6
1026.68	2849.73
1029.18	3706.3
1031.67	3441.5
1034.17	1990.43
1036.66	808.469
1039.16	796.965
1041.65	885.293
1044.14	813.531
1046.63	1101.6
1049.12	909.562
1051.62	1297.46
1054.11	1915.31
1056.59	2852.83
1059.08	4088.6
1061.57	3989.2
1064.06	3041.29
1066.54	2210.3
1069.03	1794.47
1071.51	1345.84
1073.99	1054.98
1076.47	857.496
1078.96	689.527
1081.44	550.52
1083.92	874.812
1086.4	798.969
1088.88	642.93
1091.36	706.672
1093.83	1040.19
1096.31	983.332
1098.79	586.008
1101.26	348.152
1103.73	279.707
1106.21	368.504
1108.68	371.555
1111.15	273.148
1113.62	217.898
1116.1	333.621
1118.57	380.016
1121.04	306.801
1123.5	404.004
1125.97	141.82
1128.44	11.316
1130.9	59.168
1133.37	103.105
1135.83	32.711
1138.3	133.629
1140.76	102.93
1143.22	429.543
1145.69	782.363
1148.15	343.195
1150.61	301.426
1153.07	0
