Measurement: Raman, 514 nm, ccw, Raman Data Processed
Mineral: Tremolite
Rruff sample: R040045
Ideal chemistry: [box]Ca_2_Mg_5_Si_8_O_22_(OH)_2_
Locality: Gouverneur, New York, USA
Source: University of Arizona Mineral Museum
Description: Group of colorless acicular single crystals
Measured chemistry: Ca_2.01_(Mg_0.99_Fe_0.01_)_5_(Si_0.99_Fe_0.01_)_8_O_22_(OH)_2_
Pin_id: S00030
Orientation: Laser parallel to c [0 0 1]. Fiducial mark perpendicular to laser is parallel to -b* (0 -1 0)
Raman shift (cm-1)	intensity
120.508	0
124.675	192.957
128.84	53.271
133.003	52.825
137.164	105.771
141.323	303.606
145.48	311.9
149.635	337.802
153.788	1519.46
157.939	4225.58
162.088	3926.09
166.235	1569.47
170.38	1935.06
174.523	6453.04
178.664	8362.69
182.803	3803.69
186.94	1075.86
191.076	329.066
195.209	333.246
199.34	417.349
203.47	353.504
207.597	739.527
211.722	1246.19
215.846	3663.52
219.967	10041.7
224.087	10837
228.204	5205.89
232.32	1845.24
236.434	794.888
240.545	324.777
244.655	414.888
248.763	655.196
252.869	635.715
256.973	246.617
261.075	258.041
265.175	249.821
269.273	107.011
273.369	15.428
277.463	21.377
281.556	174.024
285.646	168.587
289.734	274.689
293.821	402.006
297.905	587.186
301.988	955.462
306.069	615.961
310.147	280.295
314.224	221.257
318.299	2.309
322.372	122.576
326.443	62.913
330.512	655.166
334.579	863.852
338.645	1246.06
342.708	609.037
346.769	741.838
350.829	1074.54
354.887	817.133
358.942	509.77
362.996	662.355
367.048	1424.91
371.098	1487.48
375.146	1080.05
379.192	803.035
383.236	507.246
387.279	907.941
391.319	1791.61
395.358	1981.75
399.394	790.266
403.429	365.414
407.462	233.039
411.493	528.523
415.522	583.824
419.549	297.648
423.575	31.127
427.598	65.148
431.619	160.898
435.639	226.566
439.657	295.822
443.673	217.998
447.687	103.197
451.699	84.807
455.709	108.07
459.717	46.41
463.724	14.498
467.728	35.115
471.731	65.195
475.732	143.719
479.731	27.561
483.728	33.299
487.723	124.932
491.716	7.027
495.708	220.699
499.697	138.219
503.685	115.516
507.671	122.588
511.655	179.414
515.637	416.014
519.617	322.373
523.596	278.484
527.572	464.34
531.547	449.965
535.52	405.334
539.491	110.477
543.46	195.312
547.427	209.768
551.393	36.223
555.356	97.279
559.318	50.611
563.278	64.07
567.236	48.867
571.192	161.779
575.147	143.98
579.099	119.393
583.05	98.342
586.999	105.604
590.946	3.893
594.891	195.918
598.834	195.293
602.776	4.807
606.715	199.252
610.653	176.484
614.589	168.148
618.523	243.451
622.456	177.438
626.386	163.883
630.315	495.414
634.242	542.062
638.167	636.082
642.09	784.16
646.012	1201.9
649.931	1535.47
653.849	2413.35
657.765	2608.11
661.679	3885.22
665.592	7077.88
669.502	15992
673.411	25837.6
677.318	16730.8
681.223	7622.73
685.126	3987.71
689.028	3021.21
692.927	2186.34
696.825	1467.18
700.721	695.305
704.616	668.092
708.508	719.334
712.399	314.629
716.288	195.949
720.175	270.049
724.06	312.365
727.944	279.037
731.825	41.848
735.705	205.047
739.584	217.9
743.46	419.992
747.334	335.654
751.207	557.605
755.078	217.418
758.947	302.082
762.815	249.605
766.68	147.121
770.544	268.102
774.406	54.055
778.267	79.369
782.125	154.568
785.982	29.865
789.837	155.105
793.69	139.463
797.542	203.15
801.391	76.186
805.239	238.838
809.085	331.463
812.93	354.223
816.772	410.455
820.613	106.453
824.452	8.375
828.29	246.285
832.125	369.088
835.959	98.76
839.791	368.09
843.621	315.527
847.45	243.535
851.277	239.594
855.102	84.893
858.925	430.568
862.746	164.359
866.566	196.816
870.384	417.965
874.2	48.807
878.015	177.166
881.828	246.055
885.639	193.346
889.448	91.031
893.256	278.723
897.061	276.166
900.865	332.588
904.668	409.125
908.468	414.34
912.267	549.295
916.064	423.039
919.86	795.873
923.653	1606.89
927.445	2806.59
931.236	3755.48
935.024	2223.42
938.811	1299.23
942.596	1007.02
946.379	1364.57
950.161	1253.64
953.94	661.686
957.719	388.713
961.495	328.232
965.27	35.074
969.043	33.137
972.814	272.23
976.583	65.332
980.351	92.023
984.117	131.934
987.882	164.852
991.644	295.586
995.405	185.469
999.165	22.922
1002.92	323.066
1006.68	23.809
1010.43	174.684
1014.18	305.375
1017.93	888.176
1021.68	947.258
1025.43	1129.01
1029.18	1187.57
1032.92	1179.17
1036.66	600.484
1040.4	1109.01
1044.14	1163.39
1047.88	1756.8
1051.62	3330.32
1055.35	6743.52
1059.08	15286.5
1062.81	12939.3
1066.54	5810.3
1070.27	3255.79
1073.99	1755.4
1077.72	825.262
1081.44	496.82
1085.16	475.555
1088.88	478.406
1092.59	782.449
1096.31	568.449
1100.02	234.852
1103.73	261.137
1107.44	127.496
1111.15	22.906
1114.86	227.199
1118.57	260.23
1122.27	513.621
1125.97	40.348
1129.67	318.465
1133.37	2.445
1137.07	356.18
1140.76	94.309
1144.45	63.043
1148.15	197.367
1151.84	192.723
1155.53	209.582
1159.21	281.434
1162.9	149.152
1166.58	198.52
