Measurement: Raman, 514 nm, ccw, Raman Data Processed
Mineral: Tremolite
Rruff sample: R040045
Ideal chemistry: [box]Ca_2_Mg_5_Si_8_O_22_(OH)_2_
Locality: Gouverneur, New York, USA
Source: University of Arizona Mineral Museum
Description: Group of colorless acicular single crystals
Measured chemistry: Ca_2.01_(Mg_0.99_Fe_0.01_)_5_(Si_0.99_Fe_0.01_)_8_O_22_(OH)_2_
Pin_id: L00397
Orientation: Laser parallel to [-1 0 -1]. Fiducial mark perpendicular to laser is parallel to -b* (0 -1 0)
Raman shift (cm-1)	intensity
105.212	0
109.387	53.11
113.559	240.021
117.729	487.852
121.897	386.589
126.063	151.472
130.228	84.833
134.39	96.566
138.55	111.893
142.709	158.24
146.865	66.123
151.019	1.168
155.171	135.251
159.322	1597.8
163.47	1990.01
167.617	251.964
171.761	232.958
175.904	1123.15
180.044	3082.67
184.183	661.649
188.319	95.753
192.454	66.52
196.586	162.417
200.717	276.177
204.846	300.431
208.972	365.061
213.097	800.055
217.22	2130.37
221.341	6200.81
225.46	9825.96
229.577	9050.64
233.692	16835.3
237.805	8029.83
241.916	2404.3
246.025	2028.68
250.132	5333.05
254.237	4437.45
258.34	1622.29
262.442	757.196
266.541	352.061
270.639	203.146
274.734	97.841
278.828	208.182
282.919	224.656
287.009	8.648
291.097	138.654
295.183	171.71
299.266	359.438
303.348	776.693
307.428	725.07
311.507	837.781
315.583	575.04
319.657	196.775
323.729	43.037
327.8	59.121
331.868	35.427
335.935	131.309
339.999	198.128
344.062	703.711
348.123	849.131
352.182	1793.9
356.239	2057.72
360.294	1241.33
364.347	1544.79
368.398	4798.18
372.448	6711.49
376.495	2384.71
380.54	1417.81
384.584	1111.05
388.626	1997.01
392.666	5869.98
396.704	8444
400.74	2631.34
404.774	1489.23
408.806	1696.13
412.836	3442.74
416.865	6717.61
420.891	4040.66
424.916	1578.03
428.939	895.383
432.959	925.028
436.978	2336.32
440.996	1228.57
445.011	381.271
449.024	127.663
453.036	89.764
457.045	62.076
461.053	345.149
465.059	76.546
469.063	52.476
473.065	67.411
477.065	247.601
481.063	286.717
485.06	215.206
489.054	311.205
493.047	241.295
497.038	377.657
501.027	215.695
505.014	153.934
508.999	282.008
512.982	429.969
516.964	897.864
520.944	1395.75
524.921	1363.54
528.897	2271.2
532.871	1728.8
536.844	546.262
540.814	223.602
544.783	280.83
548.749	277.881
552.714	24.709
556.677	48.662
560.638	222.32
564.597	36.545
568.555	249.984
572.511	24.67
576.464	100.396
580.416	155.498
584.366	290.223
588.315	224.584
592.261	1.129
596.206	123.203
600.148	67.393
604.089	81.34
608.028	154.84
611.965	28.201
615.901	5.557
619.834	189.631
623.766	62.449
627.696	279.826
631.624	132.129
635.551	357.791
639.475	520.254
643.398	706.344
647.318	620.246
651.237	948.277
655.155	1751.42
659.07	2083.56
662.984	2985.65
666.895	5810.92
670.805	14284.2
674.713	27202.2
678.62	17234.9
682.524	7131.03
686.427	3629.73
690.328	2310.73
694.227	1753.39
698.124	1378.25
702.02	1039.22
705.913	556.988
709.805	425.438
713.695	379.369
717.584	652.918
721.47	448.723
725.355	334.277
729.238	296.686
733.119	404.43
736.998	718.043
740.876	880.652
744.752	642.311
748.626	1016.43
752.498	1559.5
756.368	922.945
760.237	505.879
764.104	268.316
767.969	200.395
771.832	72.266
775.693	273.68
779.553	375.01
783.411	267.525
787.267	30.506
791.122	41.389
794.974	73.441
798.825	354.922
802.674	176.314
806.522	47.303
810.367	127.908
814.211	168.213
818.053	399.01
821.893	369.82
825.732	150.791
829.568	50.996
833.403	58.422
837.236	61.373
841.068	381.504
844.898	231.266
848.726	248.457
852.552	6.494
856.376	5.82
860.199	220.486
864.02	386.496
867.839	252.281
871.656	157.914
875.472	116.621
879.286	17.42
883.098	232.166
886.909	396.611
890.717	430.42
894.524	214.113
898.33	237.586
902.133	410.834
905.935	543.811
909.735	556.473
913.533	768.863
917.33	600.881
921.124	821.898
924.918	1632.44
928.709	3123.08
932.499	5053.03
936.286	3092.04
940.073	1548.16
943.857	1385.64
947.64	2179.57
951.421	1885.39
955.2	1273.63
958.978	684.723
962.753	530.484
966.527	239.227
970.3	170.068
974.071	338.312
977.84	313.842
981.607	545.885
985.372	571.855
989.136	47.09
992.898	17.014
996.659	583.18
1000.42	733.824
1004.17	1042.66
1007.93	658.744
1011.68	742.23
1015.43	858.043
1019.18	1498.81
1022.93	2751.73
1026.68	5646.36
1030.42	10131.5
1034.17	6274.39
1037.91	2636.11
1041.65	1502.65
1045.39	1281.12
1049.12	1459.53
1052.86	2140.28
1056.59	3048.64
1060.33	5997.87
1064.06	5331.22
1067.78	3513.8
1071.51	3214.33
1075.23	2008.64
1078.96	1192.07
1082.68	964.176
1086.4	565.08
1090.12	604.764
1093.83	413.121
1097.55	280.791
1101.26	726.984
1104.97	771.891
1108.68	546.533
1112.39	309.096
1116.1	82.963
1119.8	29.012
1123.5	57.824
1127.2	303.426
1130.9	520.191
1134.6	786.238
1138.3	374.363
1141.99	371.92
1145.69	220.898
1149.38	73.982
1153.07	272.771
1156.76	479.064
1160.44	584.955
1164.13	770.488
1167.81	435.82
1171.49	141.205
1175.17	56.848
1178.85	352.086
1182.52	543.752
1186.2	688.309
1189.87	896.252
1193.54	761.289
1197.21	243.465
1200.88	419.49
1204.55	126.148
1208.21	10.223
1211.88	602.67
1215.54	817.131
1219.2	744.771
1222.86	776.086
1226.51	489.48
1230.17	297.75
1233.82	503.355
1237.47	440.008
1241.12	292.504
1244.77	586.176
1248.42	521.715
1252.06	957.035
1255.71	540.676
1259.35	0
