Measurement: Raman, 514 nm, ccw, Raman Data Processed
Mineral: Tremolite
Rruff sample: R050167
Ideal chemistry: [box]Ca_2_Mg_5_Si_8_O_22_(OH)_2_
Locality: Hunza Valley, Afghanistan
Source: Marcus Origlieri
Description: Green tabular crystals
Measured chemistry: ([box]_0.90_Na_0.10_)(Ca_0.98_Mg_0.01_Fe^2+^_0.01_)_2_(Mg_0.94_Al_0.06_)_5_(Si_0.95_Al_0.05_)_8_O_22_((OH)_0.98_F_0.02_)_2_
Pin_id: L00522
Orientation: Laser parallel to -a* (-1 0 0). Fiducial mark perpendicular to laser is parallel to b [0 1 0]
Raman shift (cm-1)	intensity
85.929	0
90.128	33.563
94.324	15.239
98.519	2.389
102.712	44.904
106.902	172.177
111.09	321.986
115.277	654.478
119.461	1179.41
123.643	468.38
127.823	59.402
132.001	23.431
136.176	24.994
140.35	171.886
144.521	264.835
148.691	56.63
152.858	321.154
157.024	2115.32
161.187	5166.98
165.348	2361
169.507	1624.24
173.664	3241.39
177.819	6018.16
181.971	3666.85
186.122	1469.56
190.271	941.645
194.417	885.35
198.562	728.307
202.704	985.755
206.844	1796.61
210.983	3670.78
215.119	6360.62
219.253	10971.1
223.385	15032.8
227.515	14405.6
231.643	21419.5
235.769	22714.5
239.893	11960.6
244.014	7117.65
248.134	8716.2
252.252	10250.6
256.367	6214.68
260.481	3529.26
264.592	2082.02
268.702	1093.75
272.809	552.032
276.915	249.476
281.018	23.651
285.119	9.131
289.218	5.029
293.316	7.478
297.411	321.757
301.504	1139.24
305.595	1256.97
309.684	1058.51
313.771	819.083
317.856	397.708
321.939	230.577
326.02	106.152
330.099	217.402
334.176	348.699
338.251	634.148
342.323	1106.78
346.394	1810.49
350.463	2843.77
354.53	2884.5
358.594	2350.77
362.657	3349.58
366.718	6415.91
370.777	9217.74
374.833	7140.06
378.888	4810.83
382.941	4161.03
386.992	5649.65
391.04	10643.7
395.087	14868.1
399.132	8743.12
403.174	4314.08
407.215	3809.45
411.254	6347.89
415.29	10260.8
419.325	9553.69
423.358	5633.56
427.389	3581.09
431.417	3397.13
435.444	3983.03
439.469	2519.69
443.492	1021.8
447.512	365.026
451.531	129.556
455.548	31.228
459.563	83.347
463.576	0.786
467.587	55.247
471.596	22.399
475.603	27.39
479.608	6.843
483.611	269.148
487.612	229.527
491.611	68.957
495.608	70.99
499.603	3.611
503.596	27.891
507.587	93.221
511.577	645.383
515.564	1543.61
519.549	2606.88
523.533	2873.18
527.514	3435.45
531.493	3303.66
535.471	1915.8
539.447	995.875
543.42	595.844
547.392	243.701
551.362	156.442
555.329	55.067
559.295	25.665
563.259	15.757
567.221	23.382
571.181	31.819
575.139	3.422
579.095	1.842
583.049	38.542
587.002	146.68
590.952	123.579
594.9	26.864
598.847	73.381
602.792	73.921
606.734	72.466
610.675	21.908
614.614	65.458
618.55	42.818
622.485	196.752
626.418	413.453
630.349	579.858
634.279	736.234
638.206	1104.03
642.131	1561.53
646.055	2472.37
649.976	3667.25
653.896	5120.45
657.814	7026.87
661.729	10478
665.643	18928.1
669.555	36651.3
673.465	50415.1
677.373	35375.8
681.28	17735
685.184	9742.28
689.087	6097.69
692.987	4102.36
696.886	2846.15
700.783	2035.79
704.677	1710.77
708.57	1330.72
712.462	1047.39
716.351	876.466
720.238	750.243
724.124	710.708
728.007	604.669
731.889	619.263
735.769	735.786
739.647	991.094
743.523	1290.36
747.397	1756.07
751.269	1716.78
755.139	1052.14
759.008	697.395
762.875	489.007
766.739	372.569
770.602	199.514
774.463	102.847
778.323	96.222
782.18	151.608
786.035	146.876
789.889	119.068
793.741	114.165
797.591	16.839
801.439	58.009
805.285	5.235
809.129	9.642
812.971	12.766
816.812	1.593
820.651	6.125
824.488	26.755
828.323	3.086
832.156	8.636
835.987	35.623
839.817	44.777
843.644	20.593
847.47	83.855
851.294	69.782
855.116	13.312
858.936	11.575
862.755	10.539
866.571	45.658
870.386	28.988
874.199	49.284
878.01	32.659
881.82	32.431
885.627	169.553
889.433	235.93
893.236	349.52
897.038	478.291
900.838	490.241
904.637	673.471
908.433	893.161
912.228	1175.35
916.021	1664.11
919.812	2496.46
923.601	3792.28
927.388	5533.33
931.174	6224.56
934.958	4555.93
938.739	2760.4
942.52	2420.98
946.298	2348.66
950.074	2090.8
953.849	1523.68
957.622	1164.95
961.393	903.268
965.162	796.799
968.93	686.385
972.696	682.336
976.459	561.09
980.222	768.451
983.982	770.894
987.74	933.615
991.497	1049.35
995.252	1134.89
999.005	1670.72
1002.76	2135.61
1006.51	2826.75
1010.25	3574.53
1014	4167.32
1017.74	4535.05
1021.49	5392.24
1025.23	8020.33
1028.96	11362.1
1032.7	9515.52
1036.44	6404.85
1040.17	4887.93
1043.9	4471.26
1047.63	4874.81
1051.36	5698.44
1055.09	7091.02
1058.81	7911.81
1062.54	6910.07
1066.26	6113.33
1069.97	5168.42
1073.69	3117.11
1077.41	1877.85
1081.12	1181.38
1084.84	884.511
1088.55	785.07
1092.25	605.448
1095.96	455.908
1099.67	375.137
1103.37	365.262
1107.07	344.954
1110.77	373.574
1114.47	453.493
1118.16	423.252
1121.86	265.2
1125.55	361.728
1129.24	280.659
1132.93	227.605
1136.62	173.368
1140.31	191.721
1143.99	169.678
1147.67	159.489
1151.35	84.364
1155.03	17.431
1158.71	23.742
1162.39	27.272
1166.06	22.892
1169.73	27.1
1173.4	14.015
1177.07	36.327
1180.74	6.153
1184.4	9.289
1188.07	0.782
1191.73	23.296
1195.39	33.2
1199.05	83.609
1202.7	67.73
1206.36	3.17
1210.01	12.515
1213.66	40.424
1217.31	3.251
1220.96	16.848
1224.6	31.888
1228.25	225.652
1231.89	193.673
1235.53	181.004
1239.17	147.449
1242.81	88.181
1246.44	54.687
1250.08	55.405
1253.71	93.325
1257.34	230.24
1260.97	215.753
1264.6	236.492
1268.22	247.821
1271.85	224.059
1275.47	202.671
1279.09	55.401
1282.71	181.125
1286.33	188.283
1289.94	179.224
1293.56	253.44
1297.17	266.818
1300.78	170.185
1304.39	2.295
1307.99	87.868
1311.6	87.621
1315.2	33.236
1318.8	115.654
1322.4	270.238
1326	257.063
1329.6	212.097
1333.19	227.025
1336.79	216.971
1340.38	120.304
1343.97	10.61
1347.56	43.041
1351.14	12.401
1354.73	169.896
1358.31	264.653
1361.89	235.928
1365.47	125.581
1369.05	91.64
1372.63	65.045
1376.2	8.18
1379.78	24.591
1383.35	8.693
1386.92	11.795
1390.49	95.78
1394.05	164.625
1397.62	161.563
1401.18	204.893
1404.74	155.385
1408.3	74.918
1411.86	185.321
1415.42	70.808
1418.97	5.105
1422.53	8.45
1426.08	97.401
1429.63	204.511
1433.18	158.117
1436.72	239.295
1440.27	358.294
1443.81	323.224
1447.36	221.943
1450.89	192.368
1454.43	125.022
1457.97	89.253
1461.51	6.36
1465.04	159.592
1468.57	170.131
1472.1	234.796
1475.63	369.01
1479.16	371.621
1482.68	326.254
1486.21	254.099
1489.73	217.917
1493.25	94.139
1496.77	34.577
1500.29	10.338
1503.8	46.111
1507.32	31.834
1510.83	138.654
1514.34	0
