Measurement: Raman, 514 nm, ccw, Raman Data Processed
Mineral: Tremolite
Rruff sample: R040045
Ideal chemistry: [box]Ca_2_Mg_5_Si_8_O_22_(OH)_2_
Locality: Gouverneur, New York, USA
Source: University of Arizona Mineral Museum
Description: Group of colorless acicular single crystals
Measured chemistry: Ca_2.01_(Mg_0.99_Fe_0.01_)_5_(Si_0.99_Fe_0.01_)_8_O_22_(OH)_2_
Pin_id: S00030
Orientation: Laser parallel to c [0 0 1]. Fiducial mark perpendicular to laser is parallel to -b* (0 -1 0)
Raman shift (cm-1)	intensity
120.508	0
124.675	174.129
128.84	87.479
133.003	84.953
137.164	257.944
141.323	421.513
145.48	342.777
149.635	239.88
153.788	921.571
157.939	2546.97
162.088	2625.46
166.235	1116.53
170.38	1378.29
174.523	3484.81
178.664	4511.5
182.803	2109.6
186.94	698.954
191.076	259.428
195.209	260.953
199.34	363.604
203.47	317.092
207.597	541.059
211.722	1225.52
215.846	2550.48
219.967	6026.38
224.087	6602.76
228.204	3759.52
232.32	2396.71
236.434	1284.27
240.545	472.202
244.655	680.479
248.763	849.092
252.869	728.029
256.973	487.298
261.075	677.068
265.175	637.282
269.273	388.146
273.369	179.577
277.463	8.437
281.556	63.979
285.646	209.743
289.734	302.268
293.821	280.505
297.905	441.968
301.988	680.302
306.069	393.708
310.147	282.827
314.224	236.914
318.299	147.556
322.372	78.122
326.443	39.053
330.512	470.441
334.579	663.38
338.645	455.189
342.708	727.398
346.769	1019.72
350.829	1472.18
354.887	1274.82
358.942	717.615
362.996	930.557
367.048	1783.62
371.098	2046.82
375.146	1900.12
379.192	1183.52
383.236	597.018
387.279	761.629
391.319	1625.63
395.358	1775.28
399.394	650.715
403.429	287.523
407.462	275.781
411.493	662.506
415.522	766.316
419.549	422.959
423.575	187.791
427.598	33.197
431.619	188.062
435.639	463.906
439.657	369.588
443.673	64.402
447.687	92.027
451.699	53.328
455.709	107.314
459.717	32.131
463.724	26.418
467.728	15.566
471.731	0.645
475.732	6.857
479.731	66.012
483.728	58.48
487.723	51.521
491.716	44.217
495.708	146.805
499.697	99.277
503.685	61.678
507.671	304.008
511.655	426.285
515.637	628.447
519.617	530.486
523.596	632.414
527.572	1134.27
531.547	986.025
535.52	667.629
539.491	219.064
543.46	240.402
547.427	241.547
551.393	57.512
555.356	203.102
559.318	33.541
563.278	24.66
567.236	75.525
571.192	176.035
575.147	205.406
579.099	84.639
583.05	106.84
586.999	70.791
590.946	38.027
594.891	164.785
598.834	201.229
602.776	207.877
606.715	166.152
610.653	76.404
614.589	148.031
618.523	304.912
622.456	28.525
626.386	163.363
630.315	178.549
634.242	273.061
638.167	487.512
642.09	655.994
646.012	914.002
649.931	1108.31
653.849	1671.83
657.765	1875.73
661.679	2495.24
665.592	4492.37
669.502	10345.5
673.411	16899.3
677.318	11301.9
681.223	5278.46
685.126	3205.35
689.028	3187.39
692.927	2387.57
696.825	1552.95
700.721	842.754
704.616	461.221
708.508	675.316
712.399	353.504
716.288	138.42
720.175	439.426
724.06	244.49
727.944	392.318
731.825	178.824
735.705	280.426
739.584	424.521
743.46	396.178
747.334	498.475
751.207	396.209
755.078	369.381
758.947	28.412
762.815	333.77
766.68	131.467
770.544	407.934
774.406	160.514
778.267	112.553
782.125	58.135
785.982	4.209
789.837	219.953
793.69	55.49
797.542	220.457
801.391	44.787
805.239	108.645
809.085	282.555
812.93	316.9
816.772	374.551
820.613	109.229
824.452	59.439
828.29	252.109
832.125	363.494
835.959	44.83
839.791	302.287
843.621	282.105
847.45	301.848
851.277	168.895
855.102	166.105
858.925	312.596
862.746	67.922
866.566	121.955
870.384	254.574
874.2	206.943
878.015	28.59
881.828	290.186
885.639	230.709
889.448	261.734
893.256	297.496
897.061	253.322
900.865	363.613
904.668	343.527
908.468	383.039
912.267	529.844
916.064	427.709
919.86	693.547
923.653	1099.28
927.445	1893.13
931.236	2516
935.024	1458
938.811	1070.23
942.596	670.135
946.379	1321.57
950.161	699.922
953.94	496.184
957.719	216.953
961.495	356.924
965.27	23.486
969.043	150.623
972.814	72.609
976.583	39.4
980.351	33.652
984.117	263.469
987.882	146.305
991.644	208.314
995.405	62.834
999.165	158.748
1002.92	238.002
1006.68	92.459
1010.43	297.352
1014.18	559.117
1017.93	1232.94
1021.68	1379.43
1025.43	1534.03
1029.18	1955.83
1032.92	1632.86
1036.66	717.789
1040.4	1064.47
1044.14	953.16
1047.88	1361.46
1051.62	2029.34
1055.35	4086.89
1059.08	9194.18
1062.81	8291.37
1066.54	3887.25
1070.27	2393.31
1073.99	1385.09
1077.72	581.629
1081.44	325.953
1085.16	390.137
1088.88	568.598
1092.59	521.957
1096.31	374.551
1100.02	319.73
1103.73	80.641
1107.44	40.898
1111.15	200.152
1114.86	88.234
1118.57	404.988
1122.27	391.273
1125.97	90.469
1129.67	322.598
1133.37	54.516
1137.07	338.609
1140.76	388.34
1144.45	97.871
1148.15	221.312
1151.84	453.328
1155.53	391.883
1159.21	52.293
1162.9	154.824
1166.58	4.273
1170.26	0
