Measurement: Raman, 514 nm, ccw, Raman Data Processed
Mineral: Tremolite
Rruff sample: R050167
Ideal chemistry: [box]Ca_2_Mg_5_Si_8_O_22_(OH)_2_
Locality: Hunza Valley, Afghanistan
Source: Marcus Origlieri
Description: Green tabular crystals
Measured chemistry: ([box]_0.90_Na_0.10_)(Ca_0.98_Mg_0.01_Fe^2+^_0.01_)_2_(Mg_0.94_Al_0.06_)_5_(Si_0.95_Al_0.05_)_8_O_22_((OH)_0.98_F_0.02_)_2_
Pin_id: M00489
Orientation: Laser parallel to (1 0 1). Fiducial mark perpendicular to laser is parallel to -b [0 -1 0]
Raman shift (cm-1)	intensity
87.649	0
91.844	76.453
96.037	140.871
100.227	193.14
104.416	220.484
108.603	804.562
112.787	1053.32
116.97	2425.41
121.15	2901.33
125.328	1087.28
129.504	398.971
133.678	111.326
137.85	67.627
142.02	79.473
146.188	29.473
150.354	153.348
154.517	314.352
158.679	2320.71
162.839	4516.76
166.996	2571.54
171.152	2236.16
175.305	5234.83
179.456	7662.98
183.605	3556.08
187.752	1304.65
191.898	706.616
196.041	585.82
200.182	453.941
204.321	671.565
208.457	1342.72
212.592	2684.84
216.725	5795.31
220.856	11709.8
224.984	12794.1
229.111	9918.35
233.236	12112.4
237.358	9846.38
241.479	4910.19
245.597	3293.97
249.713	4608.2
253.828	4369.62
257.94	2652.72
262.05	1848.22
266.159	1034.72
270.265	352.42
274.369	105.63
278.471	29.469
282.572	2.849
286.67	90.27
290.766	195.679
294.86	189.1
298.952	346.593
303.042	880.884
307.13	755.141
311.216	664.359
315.3	487.149
319.382	237.182
323.462	246.748
327.54	527.293
331.616	830.083
335.69	877.661
339.762	1215.29
343.832	2028.94
347.9	3220.53
351.965	4373.49
356.029	3816.13
360.091	3388.52
364.151	4190.56
368.209	6402.61
372.265	7534.47
376.319	5606.15
380.371	3657.65
384.421	3005.96
388.469	3850.09
392.515	6502.76
396.559	6705.4
400.601	3362.99
404.641	2321.6
408.679	2083.93
412.715	3139.08
416.749	4730.18
420.781	3857.97
424.811	2334
428.839	1699.11
432.866	1742.19
436.89	1938.71
440.912	1145.15
444.932	494.206
448.951	175.568
452.967	159.583
456.981	112.456
460.994	69.641
465.004	68.623
469.013	45.417
473.019	17.998
477.024	68.522
481.026	49.378
485.027	65.789
489.026	146.315
493.023	13.296
497.017	21.28
501.01	129.269
505.001	350.408
508.99	934.177
512.977	2027.59
516.962	2531.67
520.945	2591.37
524.927	2634.72
528.906	3182.7
532.883	2620.3
536.858	1519.53
540.832	854.388
544.803	415.867
548.773	210.966
552.741	218.655
556.706	40.917
560.67	78.674
564.632	41.241
568.592	80.072
572.55	13.7
576.506	18.963
580.46	33.095
584.412	96.657
588.363	130.763
592.311	107.427
596.258	39.34
600.202	113.353
604.145	82.708
608.086	18.314
612.024	113.606
615.961	231.912
619.896	343.678
623.829	718.934
627.761	821.256
631.69	775.442
635.617	1078.11
639.543	1486.93
643.466	2249.43
647.388	3497.07
651.308	5085.69
655.226	6573.16
659.142	7837.51
663.056	10562.1
666.968	18036.7
670.879	32442.7
674.787	36846.7
678.694	22120.1
682.598	11533.2
686.501	7505.88
690.402	5928.27
694.301	4430.33
698.198	3132.07
702.093	2213.48
705.987	1504.06
709.878	1313.14
713.768	946.957
717.656	701.26
721.542	652.937
725.426	560.891
729.308	638.118
733.188	735.394
737.067	1195.05
740.943	1610.67
744.818	1286.39
748.691	1192.03
752.562	871.719
756.431	501.771
760.298	394.509
764.163	131.69
768.027	167.668
771.888	8.764
775.748	37.046
779.606	3.872
783.462	82.376
787.317	92.315
791.169	31.258
795.019	35.635
798.868	20.663
802.715	29.376
806.56	139.443
810.403	36.813
814.245	5.718
818.084	48.161
821.922	62.515
825.758	16.758
829.592	90.907
833.424	194.995
837.254	179.032
841.082	203.031
844.909	187.008
848.734	50.969
852.557	144.912
856.378	288.846
860.197	362.816
864.015	246.877
867.831	120.976
871.645	85.17
875.457	19.636
879.267	64.442
883.075	209.452
886.882	204.777
890.687	400.316
894.49	225.969
898.291	411.854
902.09	488.024
905.888	834.356
909.683	850.86
913.477	1087.59
917.269	1354.32
921.06	1871.08
924.848	3003.37
928.635	4139.16
932.42	4209.13
936.203	2720.25
939.984	1969.56
943.764	1773.12
947.541	2158.88
951.317	1856.45
955.091	1469.69
958.864	803.685
962.634	608.741
966.403	675.537
970.17	513.035
973.935	530.933
977.698	476.945
981.46	455.407
985.22	563.931
988.978	563.177
992.734	742.786
996.488	1093.67
1000.24	1713.74
1003.99	1953.93
1007.74	2184.78
1011.49	2783.22
1015.23	3234.07
1018.98	4444.74
1022.72	5576.98
1026.46	6962.71
1030.2	7947.06
1033.93	6028.87
1037.67	4494.28
1041.4	4185.75
1045.13	4922.42
1048.86	6232.01
1052.59	8002
1056.32	9564.44
1060.04	9653.47
1063.77	7615.96
1067.49	6197.02
1071.2	4461.17
1074.92	2885.34
1078.64	1819.83
1082.35	1372.2
1086.06	1101.54
1089.78	911.503
1093.48	910.904
1097.19	720.916
1100.89	619.956
1104.6	718.638
1108.3	597.796
1112	346.149
1115.7	344.499
1119.39	242.19
1123.09	319.645
1126.78	276.741
1130.47	223.416
1134.16	189.738
1137.85	166.304
1141.54	93.006
1145.22	119.047
1148.9	105.169
1152.58	40.57
1156.26	197.456
1159.94	133.175
1163.62	178.045
1167.29	61.283
1170.96	66.771
1174.63	35.133
1178.3	26.028
1181.97	96.752
1185.63	147.853
1189.3	8.731
1192.96	76.86
1196.62	106.729
1200.28	40.019
1203.93	5.613
1207.59	32.704
1211.24	176.573
1214.89	371.656
1218.54	267.248
1222.19	301.9
1225.84	285.505
1229.48	179.614
1233.13	189.473
1236.77	199.938
1240.41	349.054
1244.05	567.693
1247.68	506.227
1251.32	464.019
1254.95	490.576
1258.58	448.147
1262.21	444.07
1265.84	310.155
1269.46	444.355
1273.09	550.117
1276.71	501.228
1280.33	557.639
1283.95	476.382
1287.57	363.545
1291.18	207.618
1294.8	301.149
1298.41	93.479
1302.02	225.054
1305.63	386.713
1309.24	545.215
1312.84	572.312
1316.45	383.281
1320.05	435.627
1323.65	178.428
1327.25	220.836
1330.85	68.168
1334.44	176.646
1338.04	165.861
1341.63	463.496
1345.22	388.936
1348.81	342.885
1352.4	280.32
1355.98	93.525
1359.57	67.354
1363.15	5.914
1366.73	61.812
1370.31	44.58
1373.89	41.746
1377.46	192.498
1381.04	507.111
1384.61	231.699
1388.18	424.783
1391.75	277.186
1395.32	118.707
1398.88	79.32
1402.45	86.596
1406.01	131.867
1409.57	153.326
1413.13	292.811
1416.69	505.508
1420.24	417.119
1423.8	465.242
1427.35	232.467
1430.9	376.354
1434.45	433.988
1438	540.414
1441.55	565.004
1445.09	607.119
1448.63	1102.13
1452.18	1373.95
1455.71	1330.02
1459.25	1221.17
1462.79	986.334
1466.32	874.104
1469.86	771.424
1473.39	432.213
1476.92	240.15
1480.45	326.822
1483.97	336.43
1487.5	285.176
1491.02	443.482
1494.54	445.535
1498.06	612.33
1501.58	552.957
1505.1	540.232
1508.62	397.744
1512.13	212.18
1515.64	0
