Measurement: Raman, 514 nm, ccw, Raman Data Processed
Mineral: Tremolite
Rruff sample: R040045
Ideal chemistry: [box]Ca_2_Mg_5_Si_8_O_22_(OH)_2_
Locality: Gouverneur, New York, USA
Source: University of Arizona Mineral Museum
Description: Group of colorless acicular single crystals
Measured chemistry: Ca_2.01_(Mg_0.99_Fe_0.01_)_5_(Si_0.99_Fe_0.01_)_8_O_22_(OH)_2_
Pin_id: M00230
Orientation: Laser parallel to b* (0 1 0). Fiducial mark perpendicular to laser is parallel to -c [0 0 -1]
Raman shift (cm-1)	intensity
134.39	0
137.164	129.359
139.937	160.529
142.709	96.527
145.48	204.938
148.25	94.189
151.019	203.822
153.788	191.408
156.555	235.85
159.322	556.295
162.088	564.062
164.853	291.736
167.617	144.375
170.38	231.779
173.142	511.834
175.904	1548.05
178.664	2094.52
181.424	1491.22
184.183	648.1
186.94	345.543
189.698	194.514
192.454	135.559
195.209	98.664
197.963	75.773
200.717	52.902
203.47	39.381
206.221	49.275
208.972	233.113
211.722	520.754
214.472	388.084
217.22	586.697
219.967	1415.74
222.714	2234.76
225.46	2063.57
228.204	942.148
230.948	741.121
233.692	529.484
236.434	407.842
239.175	106.236
241.916	244.617
244.655	232.941
247.394	271.211
250.132	449.348
252.869	287.236
255.605	224.852
258.34	202.457
261.075	160.123
263.808	297.799
266.541	285.605
269.273	343.527
272.004	81.447
274.734	10.229
277.463	77.678
280.192	136.584
282.919	22.305
285.646	88.199
288.372	255.822
291.097	445.34
293.821	286.74
296.544	72.684
299.266	133.613
301.988	198.451
304.709	79.389
307.428	159.512
310.147	118.482
312.865	69.678
315.583	229.658
318.299	198.654
321.015	148.199
323.729	281.324
326.443	290.598
329.156	339.656
331.868	598.908
334.579	687.289
337.29	465.287
339.999	546.789
342.708	875.266
345.416	1002.82
348.123	810.465
350.829	658.066
353.534	755.607
356.239	672.988
358.942	500.25
361.645	456.799
364.347	689.461
367.048	1261.18
369.748	2103.58
372.448	1565.41
375.146	763.182
377.844	440.707
380.54	399.029
383.236	478.877
385.932	287.342
388.626	605.266
391.319	1033.04
394.012	1567.4
396.704	1425.06
399.394	768.701
402.084	527.127
404.774	345.445
407.462	262.664
410.15	320.662
412.836	398.998
415.522	567.498
418.207	396.152
420.891	143.615
423.575	100.785
426.257	127.91
428.939	124.617
431.619	8.709
434.299	68.439
436.978	373.879
439.657	410.029
442.334	45.832
445.011	110.193
447.687	326.092
450.361	212.104
453.036	238.025
455.709	15.912
458.381	69.285
461.053	44.709
463.724	119.805
466.394	64.656
469.063	109.373
471.731	154.195
474.398	98.689
477.065	213.445
479.731	48.127
482.396	182.48
485.06	486.527
487.723	80.822
490.385	95.014
493.047	199.113
495.708	153.107
498.368	387
501.027	180.752
503.685	194.361
506.342	167.855
508.999	211.238
511.655	264.512
514.31	187.674
516.964	370.725
519.617	423.664
522.27	166.498
524.921	369.258
527.572	191.936
530.222	384.543
532.871	287.102
535.52	269.664
538.167	122.555
540.814	24.654
543.46	88.467
546.105	3.178
548.749	116.748
551.393	86.98
554.035	230.561
556.677	63.873
559.318	48.146
561.958	144.588
564.597	98.367
567.236	158.891
569.874	74.156
572.511	195.654
575.147	202.82
577.782	301.582
580.416	344.77
583.05	275.121
585.683	661.988
588.315	500.9
590.946	320.074
593.576	397.748
596.206	516.998
598.834	506.27
601.462	614.777
604.089	602.91
606.715	490.357
609.341	527.154
611.965	315.254
614.589	656.658
617.212	514.705
619.834	700.432
622.456	744.455
625.076	1101.16
627.696	1238.85
630.315	1005.87
632.933	540.336
635.551	423.346
638.167	769.877
640.783	766.787
643.398	1179.34
646.012	1224.32
648.625	1473.4
651.237	1810
653.849	2095.86
656.46	1840.82
659.07	1571.63
661.679	1296.4
664.288	1460.66
666.895	2434.93
669.502	4179.1
672.108	6993.17
674.713	7767.31
677.318	5551.15
679.921	3254.84
682.524	2058.37
685.126	1152.12
687.727	715.723
690.328	379.006
692.927	531.461
695.526	513.363
698.124	142.975
700.721	14.41
703.318	154.791
705.913	106.537
708.508	200.992
711.102	331.852
713.695	146.803
716.288	184.189
718.879	64.877
721.47	86.225
724.06	33.029
726.649	111.287
729.238	19.932
731.825	2.354
734.412	255.33
736.998	183.623
739.584	78.449
742.168	129.881
744.752	298.061
747.334	545.811
749.916	263.092
752.498	220.814
755.078	308.371
757.658	525.771
760.237	373.02
762.815	180.113
765.392	122.521
767.969	143.547
770.544	350.215
773.119	466.725
775.693	293.096
778.267	169.338
780.839	215.428
783.411	481.352
785.982	347.125
788.552	67.238
791.122	308.133
793.69	543.359
796.258	618.43
798.825	223.383
801.391	21.809
803.957	132.793
806.522	417.246
809.085	511.582
811.649	305.75
814.211	110.488
816.772	725.18
819.333	609.445
821.893	553.715
824.452	307.824
827.011	465.031
829.568	650.461
832.125	721.473
834.681	854.777
837.236	338.406
839.791	723.285
842.345	872.105
844.898	1154.89
847.45	827.801
850.001	539.652
852.552	870.258
855.102	1199.66
857.651	1411.43
860.199	1282.4
862.746	1170.56
865.293	1236.87
867.839	1423.86
870.384	1230.74
872.928	804.379
875.472	1031.64
878.015	660.098
880.557	627.242
883.098	336.266
885.639	504.246
888.178	524.867
890.717	1022.26
893.256	664.738
895.793	515.508
898.33	645.727
900.865	1015.44
903.401	1195.54
905.935	464.961
908.468	714.66
911.001	664.102
913.533	952.648
916.064	441.434
918.595	678.793
921.124	627.148
923.653	1046
926.182	1034.11
928.709	1032.46
931.236	1009.86
933.761	1267.93
936.286	1056.26
938.811	573.891
941.334	465.582
943.857	534.008
946.379	961.957
948.9	1079.57
951.421	626.621
953.94	371.191
956.459	1089.33
958.978	757.637
961.495	534.992
964.012	193.816
966.527	105.637
969.043	142.832
971.557	153.789
974.071	320.062
976.583	287.442
979.095	269.387
981.607	268.395
984.117	407.496
986.627	86.367
989.136	95.121
991.644	533.812
994.152	292.641
996.659	141.754
999.165	371.094
1001.67	1360.82
1004.17	780.672
1006.68	70.562
1009.18	160.773
1011.68	321.113
1014.18	411.461
1016.68	181.824
1019.18	492.242
1021.68	952.742
1024.18	1503.35
1026.68	1134.07
1029.18	1304.92
1031.67	1655.93
1034.17	1217.2
1036.66	798.715
1039.16	290.461
1041.65	392.504
1044.14	954.324
1046.63	883.613
1049.12	453.793
1051.62	777.262
1054.11	1004.08
1056.59	1999.74
1059.08	1991.05
1061.57	2067.41
1064.06	1805.08
1066.54	1050.02
1069.03	1084.09
1071.51	660.012
1073.99	816.02
1076.47	891.465
1078.96	1006.21
1081.44	620.078
1083.92	872.828
1086.4	1181.81
1088.88	776.988
1091.36	205.395
1093.83	474.965
1096.31	595.094
1098.79	705.996
1101.26	197.895
1103.73	41.535
1106.21	698.484
1108.68	768.258
1111.15	121.379
1113.62	17.793
1116.1	436.145
1118.57	664.812
1121.04	80.754
