Measurement: Raman, 514 nm, ccw, Raman Data Processed
Mineral: Tremolite
Rruff sample: R050167
Ideal chemistry: [box]Ca_2_Mg_5_Si_8_O_22_(OH)_2_
Locality: Hunza Valley, Afghanistan
Source: Marcus Origlieri
Description: Green tabular crystals
Measured chemistry: ([box]_0.90_Na_0.10_)(Ca_0.98_Mg_0.01_Fe^2+^_0.01_)_2_(Mg_0.94_Al_0.06_)_5_(Si_0.95_Al_0.05_)_8_O_22_((OH)_0.98_F_0.02_)_2_
Pin_id: M00415
Orientation: Laser parallel to -c* (0 0 -1). Fiducial mark perpendicular to laser is parallel to -a [-1 0 0]
Raman shift (cm-1)	intensity
91.844	0
96.037	74.33
100.227	12.25
104.416	12.264
108.603	174.953
112.787	265.526
116.97	821.424
121.15	956.131
125.328	679.303
129.504	182.242
133.678	17.731
137.85	69.229
142.02	2.58
146.188	41.7
150.354	158.902
154.517	1175.42
158.679	5851.01
162.839	7157.64
166.996	4175.25
171.152	5616.79
175.305	14049.2
179.456	18400.1
183.605	8362.46
187.752	3316.75
191.898	1905
196.041	1605.45
200.182	1495.98
204.321	1914.51
208.457	2983.62
212.592	5402.39
216.725	11426.9
220.856	23108.7
224.984	22140.2
229.111	10861.5
233.236	4959.53
237.358	2380.27
241.479	1440.72
245.597	1196.92
249.713	1460.88
253.828	1098.63
257.94	577.441
262.05	362.05
266.159	106.697
270.265	55.495
274.369	30.516
278.471	19.03
282.572	114.688
286.67	494.54
290.766	689.207
294.86	662.693
298.952	1228.03
303.042	2108.35
307.13	1527.02
311.216	887.143
315.3	640.877
319.382	651.17
323.462	690.401
327.54	1209.35
331.616	1986.83
335.69	1480.93
339.762	1017.3
343.832	1163.1
347.9	1551.72
351.965	2063.89
356.029	1666.13
360.091	1337.04
364.151	1882.79
368.209	3336.36
372.265	3498.76
376.319	2195.97
380.371	1419.97
384.421	1390.77
388.469	1809.51
392.515	2832.25
396.559	2422.52
400.601	1148.19
404.641	559.994
408.679	486.902
412.715	426.549
416.749	571.725
420.781	415.777
424.811	215.222
428.839	117.669
432.866	135.445
436.89	196.92
440.912	168.981
444.932	40.926
448.951	97.071
452.967	18.767
456.981	66.197
460.994	7.569
465.004	55.396
469.013	95.173
473.019	30.747
477.024	47.96
481.026	81.167
485.027	46.883
489.026	39.925
493.023	41.727
497.017	53.894
501.01	34.577
505.001	84.285
508.99	171.834
512.977	205.115
516.962	431.134
520.945	467.901
524.927	377.416
528.906	516.678
532.883	509.687
536.858	365.442
540.832	267.945
544.803	206.197
548.773	245.192
552.741	154.934
556.706	227.407
560.67	198.639
564.632	122.611
568.592	160.332
572.55	148.782
576.506	128.957
580.46	130.855
584.412	217.327
588.363	163.034
592.311	216.62
596.258	209.827
600.202	175.817
604.145	170.741
608.086	241.99
612.024	345.213
615.961	440.209
619.896	640.588
623.829	645.606
627.761	816.858
631.69	1124.12
635.617	1365.54
639.543	1804.4
643.466	2583.2
647.388	3881.47
651.308	5852.39
655.226	7701.92
659.142	9292.31
663.056	13696.6
666.968	25444
670.879	45490.3
674.787	45637.2
678.694	24523.9
682.598	11860.4
686.501	6676.68
690.402	4550.83
694.301	3124.82
698.198	2217.65
702.093	1617.2
705.987	1203.68
709.878	1085.48
713.768	785.397
717.656	539.345
721.542	588.034
725.426	417.171
729.308	411.572
733.188	464.949
737.067	337.198
740.943	397.035
744.818	356.756
748.691	270.157
752.562	183.591
756.431	76.621
760.298	87.537
764.163	31.303
768.027	14.971
771.888	83.428
775.748	2.664
779.606	48.247
783.462	105.357
787.317	53.7
791.169	35.859
795.019	116.47
798.868	61.925
802.715	28.389
806.56	45.913
810.403	28.482
814.245	119.909
818.084	67.328
821.922	66.693
825.758	49.014
829.592	84.299
833.424	232.552
837.254	226.78
841.082	165.99
844.909	157.181
848.734	124.362
852.557	132.541
856.378	205.711
860.197	3.905
864.015	3.155
867.831	55.572
871.645	36.682
875.457	49.947
879.267	105.229
883.075	105.601
886.882	184.008
890.687	220.474
894.49	341.028
898.291	484.671
902.09	626.423
905.888	745.312
909.683	782.134
913.477	1110.7
917.269	1683.87
921.06	2466.12
924.848	3883.04
928.635	4931.11
932.42	4517.43
936.203	2683.13
939.984	2021.72
943.764	2150.28
947.541	2388.18
951.317	1915.92
955.091	1288.05
958.864	936.174
962.634	749.31
966.403	745.412
970.17	684.958
973.935	603.983
977.698	556.921
981.46	355.814
985.22	478.868
988.978	509.753
992.734	550.615
996.488	687.375
1000.24	690.113
1003.99	716.784
1007.74	924.901
1011.49	1191.56
1015.23	1532.64
1018.98	1861.33
1022.72	2243.79
1026.46	2729.8
1030.2	3122.39
1033.93	3187.94
1037.67	3853.86
1041.4	5253.97
1045.13	7431.36
1048.86	10573.7
1052.59	14990.7
1056.32	19533.9
1060.04	19751.7
1063.77	14007.6
1067.49	8883.3
1071.2	5090.05
1074.92	2976.37
1078.64	1776.42
1082.35	1344.98
1086.06	984.005
1089.78	763.013
1093.48	721.114
1097.19	748.787
1100.89	511.872
1104.6	461.663
1108.3	308.605
1112	265.825
1115.7	321.64
1119.39	186.516
1123.09	340.182
1126.78	193.173
1130.47	84.124
1134.16	16.216
1137.85	27.422
1141.54	93.442
1145.22	58.709
1148.9	140.128
1152.58	153.394
1156.26	139.774
1159.94	44.063
1163.62	21.651
1167.29	36.785
1170.96	113.164
1174.63	57.591
1178.3	216.311
1181.97	108.749
1185.63	86.114
1189.3	23.625
1192.96	89.503
1196.62	72.191
1200.28	68.458
1203.93	169.621
1207.59	175.071
1211.24	224.985
1214.89	249.492
1218.54	88.812
1222.19	79.493
1225.84	56.035
1229.48	160.36
1233.13	139.464
1236.77	279.507
1240.41	288.099
1244.05	354.506
1247.68	129.099
1251.32	141.31
1254.95	146.761
1258.58	216.501
1262.21	283.229
1265.84	245.447
1269.46	361.726
1273.09	361.497
1276.71	205.605
1280.33	189.62
1283.95	177.851
1287.57	13.938
1291.18	50.407
1294.8	187.175
1298.41	211.016
1302.02	231.177
1305.63	161.583
1309.24	163.908
1312.84	93.416
1316.45	98.784
1320.05	29.217
1323.65	149.933
1327.25	63.793
1330.85	196.982
1334.44	303.311
1338.04	289.606
1341.63	265.047
1345.22	199.452
1348.81	242.052
1352.4	29.145
1355.98	12.554
1359.57	95.301
1363.15	140.635
1366.73	256.565
1370.31	243.986
1373.89	228.597
1377.46	189.628
1381.04	214.844
1384.61	227.574
1388.18	70.899
1391.75	53.188
1395.32	144.92
1398.88	145.97
1402.45	334.874
1406.01	316.327
1409.57	410.214
1413.13	429.823
1416.69	335.753
1420.24	181.898
1423.8	80.679
1427.35	110.925
1430.9	5.712
1434.45	156.567
1438	229.543
1441.55	319.53
1445.09	291.46
1448.63	483.732
1452.18	384.669
1455.71	476.565
1459.25	185.764
1462.79	146.095
1466.32	193.476
1469.86	232.037
1473.39	188.561
1476.92	71.444
1480.45	372.901
1483.97	366.854
1487.5	538.276
1491.02	543.708
1494.54	419.49
1498.06	435.146
1501.58	285.354
1505.1	147.734
1508.62	14.344
1512.13	105.464
1515.64	0
