Measurement: Raman, 514 nm, ccw, Raman Data Processed
Mineral: Tremolite
Rruff sample: R050167
Ideal chemistry: [box]Ca_2_Mg_5_Si_8_O_22_(OH)_2_
Locality: Hunza Valley, Afghanistan
Source: Marcus Origlieri
Description: Green tabular crystals
Measured chemistry: ([box]_0.90_Na_0.10_)(Ca_0.98_Mg_0.01_Fe^2+^_0.01_)_2_(Mg_0.94_Al_0.06_)_5_(Si_0.95_Al_0.05_)_8_O_22_((OH)_0.98_F_0.02_)_2_
Pin_id: M00489
Orientation: Laser parallel to (1 0 1). Fiducial mark perpendicular to laser is parallel to -b [0 -1 0]
Raman shift (cm-1)	intensity
96.037	0
100.227	129.022
104.416	6.393
108.603	784.946
112.787	760.708
116.97	1687.57
121.15	2529.04
125.328	1290.84
129.504	390.682
133.678	139.938
137.85	27.261
142.02	8.852
146.188	22.703
150.354	83.568
154.517	259.372
158.679	1842.4
162.839	3620.69
166.996	2698.32
171.152	3260.31
175.305	8338.71
179.456	11732.6
183.605	5905.4
187.752	2444.02
191.898	1331.16
196.041	1086.48
200.182	952.127
204.321	1155.16
208.457	1882.3
212.592	3451.76
216.725	7574.46
220.856	15336.4
224.984	15628.1
229.111	9009.46
233.236	6030.46
237.358	4072.11
241.479	2131.41
245.597	1527.36
249.713	1919.06
253.828	1760.71
257.94	1107.24
262.05	850.948
266.159	418.321
270.265	18.804
274.369	17.2
278.471	21.483
282.572	73.868
286.67	286.392
290.766	590.423
294.86	376.892
298.952	544.621
303.042	932.785
307.13	795.948
311.216	570.854
315.3	360.738
319.382	401.855
323.462	599.975
327.54	1037.88
331.616	1718.27
335.69	1572.11
339.762	1618.42
343.832	2323.55
347.9	3155.64
351.965	3953.5
356.029	3577.59
360.091	3185.4
364.151	3957.97
368.209	6180.31
372.265	6945.41
376.319	4980.26
380.371	3094.86
384.421	2326.2
388.469	2397.27
392.515	3390.18
396.559	3319.03
400.601	1704.42
404.641	1014.18
408.679	895.58
412.715	1047.23
416.749	1395.67
420.781	1361.42
424.811	814.781
428.839	611.031
432.866	721.712
436.89	884.63
440.912	574.634
444.932	247.041
448.951	167.018
452.967	71.94
456.981	88.159
460.994	64.073
465.004	72.891
469.013	17.507
473.019	19.873
477.024	42.414
481.026	70.467
485.027	41.612
489.026	17.86
493.023	84.138
497.017	14.716
501.01	131.295
505.001	237.946
508.99	755.239
512.977	1540.21
516.962	1858.86
520.945	1782.18
524.927	1668.18
528.906	1945.86
532.883	1735.22
536.858	1008.25
540.832	592.968
544.803	405.357
548.773	281.424
552.741	105.155
556.706	84.513
560.67	140.481
564.632	46.989
568.592	41.003
572.55	15.39
576.506	9.784
580.46	53.565
584.412	180.963
588.363	109.01
592.311	86.729
596.258	110.207
600.202	171.607
604.145	184.28
608.086	51.477
612.024	209.145
615.961	407.099
619.896	625.505
623.829	802.999
627.761	890.644
631.69	967.565
635.617	1386.35
639.543	1996.2
643.466	2781.77
647.388	4187.61
651.308	6270.31
655.226	8375.38
659.142	9247.33
663.056	11746.9
666.968	19188.1
670.879	33478.9
674.787	37459.1
678.694	22409.1
682.598	11488.9
686.501	7058.39
690.402	5407.67
694.301	3976.72
698.198	2832.55
702.093	1922.15
705.987	1428.42
709.878	1153.78
713.768	951.367
717.656	691.422
721.542	543.632
725.426	474.16
729.308	598.633
733.188	634.871
737.067	957.128
740.943	1252.63
744.818	959.627
748.691	678.744
752.562	469.145
756.431	236.412
760.298	103.432
764.163	68.049
768.027	27.811
771.888	0.523
775.748	23.723
779.606	3.423
783.462	67.851
787.317	31.5
791.169	67.237
795.019	49.841
798.868	61.874
802.715	74.119
806.56	103.224
810.403	18.522
814.245	69.066
818.084	80.56
821.922	22.98
825.758	100.324
829.592	124.606
833.424	256.841
837.254	257.03
841.082	303.188
844.909	146.355
848.734	97.522
852.557	168.673
856.378	241.825
860.197	251.031
864.015	210.309
867.831	20.646
871.645	44.923
875.457	19.409
879.267	82.174
883.075	236.828
886.882	400.559
890.687	216.387
894.49	174.303
898.291	393.37
902.09	515.6
905.888	674.939
909.683	740.365
913.477	885.601
917.269	1070.68
921.06	1629.95
924.848	2447.53
928.635	3362.73
932.42	3308.69
936.203	2212.55
939.984	1611.9
943.764	1798.05
947.541	2226.84
951.317	1930.59
955.091	1400.51
958.864	916.678
962.634	517.156
966.403	538.79
970.17	442.814
973.935	384.477
977.698	454.734
981.46	397.663
985.22	506.356
988.978	422.809
992.734	579.991
996.488	811.06
1000.24	1268.5
1003.99	1436.9
1007.74	1626.38
1011.49	2000.69
1015.23	2469.16
1018.98	3351.19
1022.72	4348.75
1026.46	5166.96
1030.2	5785
1033.93	4704.33
1037.67	3775.3
1041.4	4013.18
1045.13	5306.34
1048.86	7003.98
1052.59	9427.69
1056.32	11480.3
1060.04	11588.3
1063.77	9032.87
1067.49	6810.26
1071.2	4728.11
1074.92	3005.24
1078.64	1948.12
1082.35	1345.56
1086.06	902.624
1089.78	769.441
1093.48	796.079
1097.19	663.133
1100.89	569.151
1104.6	605.066
1108.3	440.871
1112	216.345
1115.7	242.101
1119.39	167.654
1123.09	462.372
1126.78	316.406
1130.47	250.516
1134.16	124.468
1137.85	8.3
1141.54	77.458
1145.22	26.353
1148.9	70.579
1152.58	94.276
1156.26	197.906
1159.94	140.479
1163.62	83.493
1167.29	25.483
1170.96	15.226
1174.63	34.757
1178.3	6.414
1181.97	162.967
1185.63	202.056
1189.3	9.297
1192.96	70.26
1196.62	71.818
1200.28	44.872
1203.93	67.279
1207.59	90.108
1211.24	261.472
1214.89	366.349
1218.54	251.797
1222.19	225.389
1225.84	252.03
1229.48	133.339
1233.13	233.974
1236.77	312.975
1240.41	344.536
1244.05	452.284
1247.68	492.43
1251.32	469.819
1254.95	369.403
1258.58	316.108
1262.21	274.984
1265.84	410.524
1269.46	484.666
1273.09	649.759
1276.71	542.429
1280.33	494.368
1283.95	463.599
1287.57	298.634
1291.18	146.193
1294.8	231.959
1298.41	205.582
1302.02	257.141
1305.63	292.024
1309.24	531.804
1312.84	505.592
1316.45	403.427
1320.05	281.143
1323.65	196.994
1327.25	202.405
1330.85	214.12
1334.44	165.828
1338.04	249.147
1341.63	430.745
1345.22	377.102
1348.81	325.803
1352.4	284.552
1355.98	106.252
1359.57	24.198
1363.15	49.748
1366.73	153.51
1370.31	66.289
1373.89	194.88
1377.46	394.556
1381.04	552.114
1384.61	379.56
1388.18	356.899
1391.75	232.319
1395.32	8.344
1398.88	111.306
1402.45	41.811
1406.01	210.722
1409.57	267.008
1413.13	241.397
1416.69	407.682
1420.24	434.647
1423.8	488.001
1427.35	286.839
1430.9	214.361
1434.45	287.27
1438	408.901
1441.55	549.67
1445.09	649.772
1448.63	873.514
1452.18	1058
1455.71	1136.16
1459.25	1023.04
1462.79	915.568
1466.32	643.773
1469.86	480.32
1473.39	286.543
1476.92	168.408
1480.45	172.475
1483.97	217.781
1487.5	262.166
1491.02	347.203
1494.54	444.801
1498.06	575.164
1501.58	438.188
1505.1	262.578
1508.62	200.861
1512.13	88.121
