Measurement: Raman, 514 nm, ccw, Raman Data Processed
Mineral: Tremolite
Rruff sample: R050173
Ideal chemistry: [box]Ca_2_Mg_5_Si_8_O_22_(OH)_2_
Locality: Fort Dauphin, Madagascar
Source: Marcus Origlieri
Description: Mass of colorless acicular crystals
Measured chemistry: [box]Ca_2.00_Mg_5.00_Si_8.00_O_22_(OH)_2_
Pin_id: L00129
Orientation: Laser parallel to -b* (0 -1 0). Fiducial mark perpendicular to laser is parallel to -c [0 0 -1]
Raman shift (cm-1)	intensity
84.184	0
88.374	285.379
92.562	458.371
96.748	45.719
100.932	153.414
105.114	442.865
109.294	351.365
113.472	1615.03
117.647	5660.93
121.821	10710.3
125.992	7208.06
130.162	2309.72
134.329	559.498
138.494	823.11
142.657	581.127
146.819	149.641
150.978	591.749
155.135	4729.09
159.29	9195.7
163.443	2072.22
167.593	485.328
171.742	4175.9
175.889	16089.5
180.034	11272.5
184.176	2136.55
188.317	1144.02
192.456	1438.86
196.592	1854.84
200.726	2440.06
204.859	2802.64
208.989	2627.59
213.118	3607.6
217.244	10445.8
221.368	22451.6
225.49	11417.4
229.611	3258.45
233.729	1647.41
237.845	244.778
241.959	219.929
246.071	523.086
250.181	1188.5
254.289	607.545
258.395	17.033
262.499	360.439
266.601	139.539
270.701	325.846
274.799	168.934
278.895	84.489
282.989	246.976
287.08	872.974
291.17	745.241
295.258	414.089
299.344	1678.63
303.428	2007.71
307.51	751.619
311.589	596.613
315.667	519.757
319.743	570.228
323.817	788.252
327.889	1492.68
331.958	2474.4
336.026	1873.51
340.092	3860.95
344.156	4743.55
348.218	3081.07
352.278	3056.39
356.336	1889.35
360.391	1685.56
364.445	3061.98
368.497	5466.6
372.547	3459.81
376.595	2193.69
380.641	1719.02
384.685	1953.92
388.727	4788.96
392.767	10252.4
396.805	5993.96
400.841	2216.95
404.875	1444.77
408.907	1815.2
412.937	3234.68
416.966	3397.17
420.992	1662.38
425.016	1142.5
429.038	1197.54
433.059	1774.88
437.077	1841.6
441.094	910.535
445.108	1006.33
449.121	1218.73
453.131	2016.7
457.14	5011.5
461.146	11269.7
465.151	9734.94
469.154	4228.83
473.155	2134.05
477.154	1325.09
481.15	1227.64
485.145	1063.14
489.138	703.487
493.129	642.902
497.119	491.436
501.106	259.32
505.091	296.518
509.074	583.058
513.056	759.131
517.035	1044.86
521.013	808.18
524.988	813.086
528.962	807.637
532.934	651.842
536.904	235.687
540.872	128.996
544.838	71.479
548.802	63.658
552.764	35.266
556.724	6.332
560.682	87.084
564.639	52.369
568.593	1.063
572.546	20.022
576.496	19.231
580.445	141.39
584.392	80.542
588.337	118.493
592.28	89.621
596.221	42.114
600.16	5.734
604.097	136.047
608.033	100.033
611.966	135.293
615.898	110.262
619.828	265.438
623.755	420.741
627.681	430.625
631.605	586.26
635.527	892.115
639.448	1276.72
643.366	2074.65
647.283	3849.82
651.197	6772.16
655.11	6763.53
659.021	6514.28
662.93	9877.92
666.837	21265.4
670.742	49818.9
674.645	49027.7
678.546	21019.8
682.446	9024.35
686.344	5367.38
690.239	3780
694.133	2733.8
698.025	1811.89
701.916	1370.04
705.804	996.819
709.69	903.658
713.575	665.98
717.458	521.005
721.338	486.691
725.217	277.498
729.095	247.782
732.97	383.248
736.843	500.813
740.715	818.247
744.584	756.015
748.452	1042.93
752.318	1124.98
756.182	595.161
760.045	211.592
763.905	99.191
767.764	124.662
771.621	111.233
775.475	108.684
779.329	156.477
783.18	223.811
787.029	0.657
790.877	17.198
794.722	103.464
798.566	109.44
802.408	95.076
806.249	30.451
810.087	104.417
813.923	50.272
817.758	114.615
821.591	58.599
825.422	17.911
829.251	114.363
833.079	21.713
836.904	0.549
840.728	27.669
844.55	36.39
848.37	124.45
852.188	65.097
856.005	95.535
859.82	134.602
863.633	65.783
867.444	47.312
871.253	104.87
875.06	61.603
878.866	52.809
882.67	131.384
886.472	159.682
890.272	227.877
894.07	275.899
897.867	433.768
901.662	291.473
905.455	409.019
909.246	636.403
913.035	713.596
916.823	1059.45
920.608	1944.74
924.392	3909.96
928.175	7784.74
931.955	6769.22
935.734	3168.84
939.511	2180.75
943.286	2814.39
947.059	3189.07
950.83	1659.83
954.6	832.631
958.368	645.854
962.134	429.541
965.898	370.855
969.661	271.943
973.422	418.523
977.181	200.451
980.938	339.74
984.693	264.451
988.447	373.725
992.199	287.354
995.949	331.297
999.697	445.242
1003.44	509.609
1007.19	529.498
1010.93	650.639
1014.67	801.467
1018.41	1343.77
1022.15	1851.65
1025.89	3584.92
1029.62	4003.06
1033.35	1933.41
1037.08	1736.78
1040.81	1612.91
1044.54	2086.75
1048.27	3513.91
1051.99	7017.75
1055.71	19002.6
1059.43	31495.5
1063.15	14288.1
1066.87	6391.5
1070.58	4203.95
1074.3	2314.54
1078.01	1676.25
1081.72	1888.08
1085.42	2446
1089.13	1151.43
1092.84	702.125
1096.54	403.414
1100.24	394.02
1103.94	304.695
1107.64	375.84
1111.33	344.846
1115.03	304.24
1118.72	461.904
1122.41	140.916
1126.1	20.092
1129.79	80.846
1133.47	63.01
1137.15	46.648
1140.84	45.828
1144.52	194.387
1148.19	141.787
1151.87	181.826
1155.55	540.686
1159.22	648.773
1162.89	364.439
1166.56	188.432
1170.23	84.566
1173.9	86.297
1177.56	48.861
1181.22	56.102
1184.89	49.342
1188.55	190.939
1192.2	41.791
1195.86	275.645
1199.52	39.998
1203.17	369.367
1206.82	182.016
1210.47	263.625
1214.12	232.768
1217.76	408.059
1221.41	362.406
1225.05	409.104
1228.69	434.402
1232.33	348.891
1235.97	380.562
1239.6	161.318
1243.24	268.779
1246.87	325.574
1250.5	202.732
1254.13	446.996
1257.76	291.51
1261.38	355.275
1265.01	310.398
1268.63	274.662
1272.25	102.646
1275.87	272.637
1279.49	178.248
1283.1	251.26
1286.72	54.93
1290.33	296.803
1293.94	46.268
1297.55	25.723
1301.16	36.018
1304.76	154.453
1308.37	41.873
1311.97	265.953
1315.57	18.48
1319.17	39.098
1322.77	67.818
1326.36	155.393
1329.95	218.605
1333.55	95.754
1337.14	55.363
1340.73	102.592
1344.32	298.203
1347.9	10.127
1351.48	149.242
1355.07	288.68
1358.65	185.578
1362.23	243.004
1365.8	19.727
1369.38	225.324
1372.95	101.541
1376.53	284.066
1380.1	245.102
1383.67	314.158
1387.23	374.162
1390.8	371.299
1394.36	478.287
1397.93	254.404
1401.49	275.846
1405.05	135.066
1408.61	118.742
1412.16	227.588
1415.71	217.229
1419.27	197.125
1422.82	470.867
1426.37	510.41
1429.92	475.428
1433.46	509.602
1437.01	471.533
1440.55	217.67
1444.09	525.262
1447.63	280.625
1451.17	489.76
1454.71	433.17
1458.24	763.258
1461.78	657.893
1465.31	535.65
1468.84	653.213
1472.37	537.686
1475.89	477.895
1479.42	562.912
1482.94	303.756
1486.46	3.85
1489.98	294.281
1493.5	383.898
1497.02	263.367
1500.53	195.051
1504.05	145.059
1507.56	118.82
1511.07	115.406
1514.58	145.086
1518.09	136.988
1521.59	69.377
