Measurement: Raman, 514 nm, ccw, Raman Data Processed
Mineral: Tremolite
Rruff sample: R040045
Ideal chemistry: [box]Ca_2_Mg_5_Si_8_O_22_(OH)_2_
Locality: Gouverneur, New York, USA
Source: University of Arizona Mineral Museum
Description: Group of colorless acicular single crystals
Measured chemistry: Ca_2.01_(Mg_0.99_Fe_0.01_)_5_(Si_0.99_Fe_0.01_)_8_O_22_(OH)_2_
Pin_id: M00230
Orientation: Laser parallel to b* (0 1 0). Fiducial mark perpendicular to laser is parallel to -c [0 0 -1]
Raman shift (cm-1)	intensity
128.84	0
131.615	47.623
134.39	31.643
137.164	153.104
139.937	189.186
142.709	88.171
145.48	129.112
148.25	102.59
151.019	86.907
153.788	281.771
156.555	937.1
159.322	3142.8
162.088	2241.26
164.853	483.808
167.617	301.845
170.38	269.029
173.142	766.353
175.904	2623.8
178.664	4381.5
181.424	2099.33
184.183	547.216
186.94	215.152
189.698	153.131
192.454	211.143
195.209	89.185
197.963	67.265
200.717	25.811
203.47	6.405
206.221	10.842
208.972	107.476
211.722	426.166
214.472	834.859
217.22	1093.6
219.967	2512.38
222.714	4841.19
225.46	3583.04
228.204	1262.05
230.948	620.819
233.692	339.583
236.434	288.354
239.175	77.115
241.916	115.872
244.655	124.625
247.394	283.326
250.132	350.182
252.869	410.669
255.605	229.316
258.34	48.002
261.075	76.712
263.808	435.483
266.541	264.479
269.273	183.605
272.004	7.162
274.734	2.138
277.463	100.906
280.192	10.349
282.919	45.185
285.646	74.53
288.372	68.639
291.097	104.04
293.821	133.086
296.544	112.178
299.266	360.694
301.988	682.57
304.709	621.457
307.428	190.523
310.147	129.969
312.865	99.769
315.583	89.963
318.299	139.284
321.015	208.354
323.729	57.642
326.443	56.508
329.156	85.86
331.868	304.776
334.579	513.871
337.29	492.65
339.999	341.935
342.708	630.813
345.416	559.632
348.123	658.365
350.829	647.193
353.534	716.32
356.239	415.414
358.942	343.771
361.645	210.981
364.347	269.688
367.048	588.231
369.748	606.346
372.448	634.746
375.146	433.479
377.844	452.211
380.54	380.589
383.236	451.09
385.932	250.193
388.626	599.501
391.319	920.511
394.012	1829.8
396.704	1440.42
399.394	656.196
402.084	310.896
404.774	225.794
407.462	204.419
410.15	223.144
412.836	501.29
415.522	779.485
418.207	541.468
420.891	150.296
423.575	91.375
426.257	27.207
428.939	45.12
431.619	113.686
434.299	181.693
436.978	69.383
439.657	151.464
442.334	58.891
445.011	54.638
447.687	82.001
450.361	209.157
453.036	36.179
455.709	23.404
458.381	190.368
461.053	307.294
463.724	224.141
466.394	90.894
469.063	27.61
471.731	84.277
474.398	220.87
477.065	337.387
479.731	173.821
482.396	118.412
485.06	234.556
487.723	140.78
490.385	266.931
493.047	423.054
495.708	199.147
498.368	75.175
501.027	171.144
503.685	367.042
506.342	342.867
508.999	178.616
511.655	104.289
514.31	109.881
516.964	295.39
519.617	330.822
522.27	226.19
524.921	391.486
527.572	411.842
530.222	381.842
532.871	416.904
535.52	431.887
538.167	216.783
540.814	1.596
543.46	56.293
546.105	51.039
548.749	205.654
551.393	211.936
554.035	12.09
556.677	91.262
559.318	66.424
561.958	409.439
564.597	276.359
567.236	110.902
569.874	123.049
572.511	280.117
575.147	413.705
577.782	352.918
580.416	306.092
583.05	122.326
585.683	285.365
588.315	488.877
590.946	540.621
593.576	458.676
596.206	250.35
598.834	202.736
601.462	334.33
604.089	442.676
606.715	359.633
609.341	360.488
611.965	211.746
614.589	422.035
617.212	655.465
619.834	637.752
622.456	645.102
625.076	657.113
627.696	783.355
630.315	714.141
632.933	685.051
635.551	414.902
638.167	455.518
640.783	676.203
643.398	957.131
646.012	1033.05
648.625	1077.8
651.237	1088.04
653.849	1309.26
656.46	1221.32
659.07	1460.96
661.679	1551.71
664.288	1921.19
666.895	3281.09
669.502	6180.4
672.108	10769.3
674.713	11448.9
677.318	7327.92
679.921	3997.89
682.524	2477.09
685.126	1676.18
687.727	1225.18
690.328	784.145
692.927	702.734
695.526	621.1
698.124	528.174
700.721	265.381
703.318	272.943
705.913	140.883
708.508	426.299
711.102	410.842
713.695	81.162
716.288	157.141
718.879	10.113
721.47	180.498
724.06	276.643
726.649	243.695
729.238	120.678
731.825	72.574
734.412	240.168
736.998	505.865
739.584	31.332
742.168	2.387
744.752	273.779
747.334	299.16
749.916	264.787
752.498	160.65
755.078	126.225
757.658	312
760.237	397.578
762.815	373.152
765.392	178.736
767.969	126.008
770.544	289.234
773.119	444.377
775.693	389.406
778.267	24.371
780.839	70.77
783.411	273.902
785.982	228.49
788.552	122.99
791.122	117.408
793.69	181.738
796.258	485.979
798.825	260.135
801.391	84.201
803.957	141.818
806.522	121.904
809.085	556.428
811.649	470.115
814.211	23.549
816.772	387.18
819.333	250.648
821.893	425.805
824.452	289.377
827.011	136.914
829.568	339.07
832.125	494.812
834.681	528.406
837.236	384.6
839.791	358.041
842.345	539.65
844.898	813.639
847.45	596.166
850.001	318.957
852.552	571.367
855.102	923.582
857.651	1125.78
860.199	1167.46
862.746	639.312
865.293	779.807
867.839	954.377
870.384	964.428
872.928	663.695
875.472	465.025
878.015	426.451
880.557	565.768
883.098	417.295
885.639	263.029
888.178	285.033
890.717	806.764
893.256	637.104
895.793	657.293
898.33	269.322
900.865	540.648
903.401	991.844
905.935	653.291
908.468	294.457
911.001	345.688
913.533	795.977
916.064	726.014
918.595	556.184
921.124	587.492
923.653	808.26
926.182	1466.88
928.709	2026.32
931.236	1835.57
933.761	1829.74
936.286	1320.27
938.811	1100.27
941.334	549.508
943.857	309.285
946.379	749.271
948.9	1169.18
951.421	778.725
953.94	388.152
956.459	418.1
958.978	747.805
961.495	727.508
964.012	355.09
966.527	115.42
969.043	135.852
971.557	361.691
974.071	91.76
976.583	58.014
979.095	131.621
981.607	510.738
984.117	458.877
986.627	40.824
989.136	30.141
991.644	320.83
994.152	471.52
996.659	262.146
999.165	102.727
1001.67	843.359
1004.17	714.201
1006.68	265.125
1009.18	156.07
1011.68	17.08
1014.18	608.309
1016.68	509.561
1019.18	520.807
1021.68	572.037
1024.18	1123.28
1026.68	864.564
1029.18	566.051
1031.67	497.699
1034.17	739.482
1036.66	711.459
1039.16	513.547
1041.65	455.748
1044.14	888.078
1046.63	1180.76
1049.12	1041.86
1051.62	1094.07
1054.11	1582.81
1056.59	3726.81
1059.08	5736.13
1061.57	5767.02
1064.06	3808.35
1066.54	2404.37
1069.03	1683.99
1071.51	843.266
1073.99	610.49
1076.47	879.531
1078.96	1108.33
1081.44	656.852
1083.92	385.01
1086.4	862.709
1088.88	779.84
1091.36	336.297
1093.83	502.033
1096.31	448.99
1098.79	739.502
1101.26	491.516
1103.73	123.961
1106.21	577.002
1108.68	780.799
1111.15	555.779
1113.62	2.699
1116.1	402.223
1118.57	934.105
1121.04	619.064
1123.5	243.754
1125.97	279.803
1128.44	667.266
1130.9	238.16
