Measurement: Raman, 514 nm, ccw, Raman Data Processed
Mineral: Tremolite
Rruff sample: R040045
Ideal chemistry: [box]Ca_2_Mg_5_Si_8_O_22_(OH)_2_
Locality: Gouverneur, New York, USA
Source: University of Arizona Mineral Museum
Description: Group of colorless acicular single crystals
Measured chemistry: Ca_2.01_(Mg_0.99_Fe_0.01_)_5_(Si_0.99_Fe_0.01_)_8_O_22_(OH)_2_
Pin_id: M00236
Orientation: Laser parallel to a [1 0 0]. Fiducial mark perpendicular to laser is parallel to -b* (0 -1 0)
Raman shift (cm-1)	intensity
131.615	0
134.39	50.212
137.164	178.764
139.937	410.31
142.709	538.933
145.48	432.449
148.25	84.503
151.019	93.823
153.788	262.383
156.555	994.43
159.322	1747.51
162.088	1179.3
164.853	336.348
167.617	115.19
170.38	299.675
173.142	838.345
175.904	1958.62
178.664	2170.46
181.424	1121.98
184.183	299.122
186.94	32.6
189.698	71.376
192.454	178.425
195.209	76.723
197.963	19.084
200.717	30.004
203.47	43.979
206.221	170.527
208.972	624.125
211.722	1258.33
214.472	2019.89
217.22	3180.71
219.967	5520.78
222.714	7151.09
225.46	6531.48
228.204	7382.08
230.948	9919.12
233.692	8789.8
236.434	4690.27
239.175	2102.82
241.916	1287.45
244.655	1749.16
247.394	2912.93
250.132	3733.77
252.869	2684.66
255.605	1436.61
258.34	932.623
261.075	780.692
263.808	713.239
266.541	554.22
269.273	245.744
272.004	66.307
274.734	53.093
277.463	59.02
280.192	46.916
282.919	15.868
285.646	53.135
288.372	2.88
291.097	28.877
293.821	0.148
296.544	218.099
299.266	466.797
301.988	587.645
304.709	650.975
307.428	509.856
310.147	452.725
312.865	328.771
315.583	192.97
318.299	56.083
321.015	177.605
323.729	1.01
326.443	74.516
329.156	9.956
331.868	104.674
334.579	193.367
337.29	193.121
339.999	349.048
342.708	599.058
345.416	703.955
348.123	1038.89
350.829	1432.85
353.534	1444.85
356.239	999.852
358.942	723.894
361.645	942.956
364.347	1923.04
367.048	3994.76
369.748	4906.84
372.448	3238.88
375.146	2040.9
377.844	1452.94
380.54	1015.97
383.236	1056.06
385.932	1279.35
388.626	2621.8
391.319	5185.33
394.012	6809.28
396.704	4572.77
399.394	2102.98
402.084	1237.17
404.774	1069.42
407.462	1261.56
410.15	2204.05
412.836	3655.76
415.522	4708.64
418.207	3505.56
420.891	1847.96
423.575	930.212
426.257	659.516
428.939	586.768
431.619	957.011
434.299	1379.97
436.978	1523.68
439.657	695.074
442.334	334.605
445.011	108.599
447.687	163.071
450.361	32.088
453.036	105.99
455.709	111.376
458.381	121.403
461.053	27.554
463.724	22.044
466.394	85.173
469.063	23.061
471.731	66.865
474.398	66.771
477.065	116.659
479.731	18.525
482.396	149.357
485.06	340.074
487.723	227.864
490.385	267.676
493.047	198.417
495.708	108.951
498.368	39.632
501.027	130.301
503.685	160.959
506.342	231.601
508.999	232.198
511.655	352.764
514.31	633.29
516.964	873.805
519.617	1044.31
522.27	844.809
524.921	1255.33
527.572	1675.81
530.222	1656.26
532.871	1036.65
535.52	616.988
538.167	327.288
540.814	157.541
543.46	70.432
546.105	37.914
548.749	108.023
551.393	1.94
554.035	8.016
556.677	102.092
559.318	2.389
561.958	127.234
564.597	96.828
567.236	46.358
569.874	124.18
572.511	35.059
575.147	214.253
577.782	153.32
580.416	112.291
583.05	81.188
585.683	160.009
588.315	168.755
590.946	27.423
593.576	15.998
596.206	24.483
598.834	42.871
601.462	91.184
604.089	159.512
606.715	147.662
609.341	95.434
611.965	16.152
614.589	222.212
617.212	117.227
619.834	71.324
622.456	109.533
625.076	147.189
627.696	202.587
630.315	281.106
632.933	239.468
635.551	259.944
638.167	427.409
640.783	435.873
643.398	643.58
646.012	784.246
648.625	942.383
651.237	1100.43
653.849	1388.85
656.46	1748.85
659.07	2026.65
661.679	2750.07
664.288	4346.9
666.895	7695.09
669.502	13771.9
672.108	21179.1
674.713	21543.9
677.318	13844.7
679.921	7670.36
682.524	4616.76
685.126	3084.37
687.727	2520.6
690.328	2116.71
692.927	1633.72
695.526	1250.41
698.124	997.188
700.721	633.973
703.318	640.805
705.913	495.762
708.508	608.447
711.102	596.809
713.695	305.421
716.288	260.228
718.879	238.438
721.47	413.865
724.06	338.332
726.649	313.248
729.238	227.949
731.825	292.314
734.412	484.678
736.998	648.828
739.584	582.043
742.168	675.295
744.752	848.573
747.334	1050.85
749.916	1024.16
752.498	935.132
755.078	456.695
757.658	488.748
760.237	270.815
762.815	311.991
765.392	183.467
767.969	172.49
770.544	244.179
773.119	305.33
775.693	166.093
778.267	57.452
780.839	78.538
783.411	169.895
785.982	91.197
788.552	37.646
791.122	173.319
793.69	124.148
796.258	244.836
798.825	24.616
801.391	15.738
803.957	95.939
806.522	115.997
809.085	156.26
811.649	16.023
814.211	83.521
816.772	155.958
819.333	145.895
821.893	246.102
824.452	28.893
827.011	101.044
829.568	29.562
832.125	133.331
834.681	281.841
837.236	30.181
839.791	249.32
842.345	197.179
844.898	95.02
847.45	93.116
850.001	73.704
852.552	32.747
855.102	29.682
857.651	209.46
860.199	145.913
862.746	47.769
865.293	58.388
867.839	284.424
870.384	170.338
872.928	46.111
875.472	231.726
878.015	177.211
880.557	32.617
883.098	127.906
885.639	16.892
888.178	108.206
890.717	313.182
893.256	258.04
895.793	102.782
898.33	127.408
900.865	291.922
903.401	406.326
905.935	300.618
908.468	264.797
911.001	208.849
913.533	452.616
916.064	557.964
918.595	639.553
921.124	772.474
923.653	1345.75
926.182	2128.45
928.709	3230.61
931.236	3742.1
933.761	2904.06
936.286	1876.16
938.811	1197.08
941.334	924.646
943.857	1235.96
946.379	1517.21
948.9	1558.23
951.421	976.121
953.94	595.889
956.459	506.867
958.978	470.078
961.495	249.943
964.012	56.689
966.527	192.209
969.043	112.715
971.557	203.141
974.071	27.518
976.583	112.656
979.095	225.213
981.607	253.781
984.117	179.93
986.627	80.811
989.136	19.211
991.644	178.061
994.152	86.438
996.659	94.27
999.165	17.459
1001.67	291.377
1004.17	161.025
1006.68	33.605
1009.18	232.844
1011.68	347.721
1014.18	517.219
1016.68	705.121
1019.18	1029.92
1021.68	1709.76
1024.18	2798.8
1026.68	4656.6
1029.18	6636.69
1031.67	5526.35
1034.17	2926.1
1036.66	1645.7
1039.16	955.15
1041.65	734.484
1044.14	893.699
1046.63	972.902
1049.12	702.002
1051.62	1131.09
1054.11	1709.54
1056.59	3227.01
1059.08	5074.52
1061.57	5254.62
1064.06	3547.14
1066.54	2584.88
1069.03	2369.68
1071.51	1756.56
1073.99	1114.65
1076.47	799.184
1078.96	610.121
1081.44	347.773
1083.92	325.449
1086.4	473.041
1088.88	400.498
1091.36	227.725
1093.83	324.709
1096.31	331.436
1098.79	257.883
1101.26	154.029
1103.73	259.99
1106.21	306.518
1108.68	343.615
1111.15	111.162
1113.62	10.408
1116.1	208.238
1118.57	297.012
1121.04	186.025
1123.5	4.541
1125.97	85.584
1128.44	321.283
1130.9	17.133
1133.37	91.102
1135.83	4.1
1138.3	252.891
1140.76	212.002
1143.22	40.262
1145.69	0
