Measurement: Raman, 514 nm, ccw, Raman Data Processed
Mineral: Tremolite
Rruff sample: R050167
Ideal chemistry: [box]Ca_2_Mg_5_Si_8_O_22_(OH)_2_
Locality: Hunza Valley, Afghanistan
Source: Marcus Origlieri
Description: Green tabular crystals
Measured chemistry: ([box]_0.90_Na_0.10_)(Ca_0.98_Mg_0.01_Fe^2+^_0.01_)_2_(Mg_0.94_Al_0.06_)_5_(Si_0.95_Al_0.05_)_8_O_22_((OH)_0.98_F_0.02_)_2_
Pin_id: L00522
Orientation: Laser parallel to -a* (-1 0 0). Fiducial mark perpendicular to laser is parallel to b [0 1 0]
Raman shift (cm-1)	intensity
85.929	0
90.128	71.25
94.324	2.623
98.519	18.057
102.712	76.28
106.902	323.271
111.09	692.121
115.277	1623.19
119.461	3292.66
123.643	3104.28
127.823	1396.19
132.001	393.566
136.176	299.567
140.35	483.746
144.521	638.704
148.691	201.252
152.858	378.214
157.024	2099.44
161.187	4941.8
165.348	2764.18
169.507	1849.44
173.664	3472.38
177.819	6272.68
181.971	4002.72
186.122	1762.19
190.271	1334.17
194.417	1183.31
198.562	755.706
202.704	936.362
206.844	1900.15
210.983	4089.03
215.119	6950.98
219.253	9873.99
223.385	12688
227.515	12033
231.643	17568.9
235.769	17745.8
239.893	9273.53
244.014	5672.14
248.134	7231.91
252.252	8047.94
256.367	4830.08
260.481	2794.54
264.592	1795.1
268.702	898.488
272.809	374.402
276.915	86.781
281.018	60.394
285.119	14.913
289.218	155.553
293.316	199.418
297.411	410.375
301.504	1063.56
305.595	1148.01
309.684	986.472
313.771	743.666
317.856	492.268
321.939	429.478
326.02	420.266
330.099	725.603
334.176	843.463
338.251	911.83
342.323	1332.82
346.394	2060.19
350.463	2906.03
354.53	2804.32
358.594	2205.07
362.657	3103.26
366.718	5927.86
370.777	8288.87
374.833	6340.26
378.888	4314.01
382.941	3870.11
386.992	5186.55
391.04	10059.3
395.087	13402.4
399.132	7665.69
403.174	3843.37
407.215	3405.86
411.254	5420.57
415.29	8595.18
419.325	7794.51
423.358	4626.93
427.389	2908.43
431.417	2683.28
435.444	3097.38
439.469	1852.32
443.492	687.569
447.512	232.23
451.531	52.767
455.548	2.821
459.563	34.217
463.576	0.997
467.587	52.619
471.596	35.743
475.603	35.133
479.608	105.56
483.611	361.012
487.612	452.483
491.611	321.968
495.608	48.568
499.603	5.751
503.596	88.938
507.587	386.701
511.577	1149.45
515.564	2052.19
519.549	2503.93
523.533	2463.61
527.514	2776.2
531.493	2618.67
535.471	1470.02
539.447	763.25
543.42	433.336
547.392	198.278
551.362	107.073
555.329	76.707
559.295	41.168
563.259	37.694
567.221	42.153
571.181	42.708
575.139	10.021
579.095	58.905
583.049	86.473
587.002	124.784
590.952	93.843
594.9	12.572
598.847	72.278
602.792	114.041
606.734	78.847
610.675	3.361
614.614	59.732
618.55	82.515
622.485	216.555
626.418	406.763
630.349	512.553
634.279	782.763
638.206	1088.9
642.131	1537.01
646.055	2429.38
649.976	3583.9
653.896	5047.41
657.814	6825.63
661.729	10357.2
665.643	18675.6
669.555	35863.9
673.465	48682.6
677.373	34338.5
681.28	17341.1
685.184	9343.5
689.087	5715.56
692.987	3957.3
696.886	2756.53
700.783	2091.68
704.677	1643.13
708.57	1370.55
712.462	1214.15
716.351	1081.82
720.238	899.908
724.124	918.494
728.007	854.549
731.889	1024.43
735.769	1452.2
739.647	2212.5
743.523	2276.53
747.397	2400.06
751.269	2171.35
755.139	1496.42
759.008	995.355
762.875	689.767
766.739	472.648
770.602	223.179
774.463	174.074
778.323	139.957
782.18	164.675
786.035	171.262
789.889	190.677
793.741	190.928
797.591	32.012
801.439	20.921
805.285	7.581
809.129	2.857
812.971	23.812
816.812	49.5
820.651	8.156
824.488	56.961
828.323	51.833
832.156	130.456
835.987	66.921
839.817	75.273
843.644	149.521
847.47	109.672
851.294	41.738
855.116	29.725
858.936	3.372
862.755	22.546
866.571	13.213
870.386	21.972
874.199	135.865
878.01	99.01
881.82	120.361
885.627	212.876
889.433	354.494
893.236	437.237
897.038	555.062
900.838	656.95
904.637	810.972
908.433	1068.3
912.228	1273.07
916.021	1647.25
919.812	2385.84
923.601	3386.69
927.388	5210.72
931.174	5954.73
934.958	4188.82
938.739	2622.71
942.52	2292.84
946.298	2158
950.074	2006.49
953.849	1444.78
957.622	1134.45
961.393	825.918
965.162	794.73
968.93	682.226
972.696	654.724
976.459	636.069
980.222	748.848
983.982	773.328
987.74	875.419
991.497	964.711
995.252	1203.31
999.005	1541.31
1002.76	1974.46
1006.51	2645.98
1010.25	3220.92
1014	3746.52
1017.74	4165.54
1021.49	5075.07
1025.23	7416.77
1028.96	10385
1032.7	8532.27
1036.44	5900.18
1040.17	4373.21
1043.9	4129.62
1047.63	4471.51
1051.36	5190.51
1055.09	6454.8
1058.81	7237.49
1062.54	6326.19
1066.26	5947.81
1069.97	5174.84
1073.69	3283.93
1077.41	2030.8
1081.12	1241.34
1084.84	888.341
1088.55	824.893
1092.25	644.057
1095.96	580.031
1099.67	484.606
1103.37	355.591
1107.07	361.903
1110.77	416.301
1114.47	467.476
1118.16	401.371
1121.86	386.96
1125.55	376.453
1129.24	266.308
1132.93	269.105
1136.62	202.748
1140.31	201.249
1143.99	191.268
1147.67	241.455
1151.35	88.274
1155.03	2.588
1158.71	110.439
1162.39	6.606
1166.06	19.207
1169.73	69.267
1173.4	4.906
1177.07	77.387
1180.74	11.834
1184.4	67.132
1188.07	98.374
1191.73	21.662
1195.39	90.768
1199.05	135.537
1202.7	17.781
1206.36	120.025
1210.01	2.66
1213.66	21.115
1217.31	29.005
1220.96	4.233
1224.6	98.307
1228.25	235.387
1231.89	206.019
1235.53	212.305
1239.17	147.091
1242.81	116.077
1246.44	105.471
1250.08	118.97
1253.71	117.636
1257.34	217.896
1260.97	347.281
1264.6	410.384
1268.22	337.873
1271.85	194.985
1275.47	140.545
1279.09	115.712
1282.71	120.531
1286.33	254.18
1289.94	176.078
1293.56	186.671
1297.17	254.828
1300.78	142.225
1304.39	28.559
1307.99	192.388
1311.6	132.266
1315.2	22.034
1318.8	197.307
1322.4	305.835
1326	323.183
1329.6	345.092
1333.19	282.891
1336.79	233.119
1340.38	193.561
1343.97	53.948
1347.56	165.513
1351.14	11.694
1354.73	227.396
1358.31	301.356
1361.89	265.248
1365.47	170.398
1369.05	104.991
1372.63	4.968
1376.2	153.955
1379.78	20.705
1383.35	3.306
1386.92	122.223
1390.49	166.504
1394.05	248.513
1397.62	238.03
1401.18	272.23
1404.74	118.355
1408.3	207.469
1411.86	249.592
1415.42	137.83
1418.97	122.932
1422.53	117.964
1426.08	136.736
1429.63	276.094
1433.18	281.791
1436.72	450.587
1440.27	516.91
1443.81	436.474
1447.36	298.042
1450.89	386.086
1454.43	302.906
1457.97	203.615
1461.51	173.503
1465.04	276.932
1468.57	298.192
1472.1	186.923
1475.63	425.02
1479.16	380.856
1482.68	197.6
1486.21	363.578
1489.73	81.862
1493.25	38.894
1496.77	6.018
1500.29	13.753
1503.8	24.552
1507.32	83.773
