Measurement: Raman, 514 nm, ccw, Raman Data Processed
Mineral: Tremolite
Rruff sample: R050173
Ideal chemistry: [box]Ca_2_Mg_5_Si_8_O_22_(OH)_2_
Locality: Fort Dauphin, Madagascar
Source: Marcus Origlieri
Description: Mass of colorless acicular crystals
Measured chemistry: [box]Ca_2.00_Mg_5.00_Si_8.00_O_22_(OH)_2_
Pin_id: L00398
Orientation: Laser parallel to (1 0 1). Fiducial mark perpendicular to laser is parallel to b [0 1 0]
Raman shift (cm-1)	intensity
96.748	0
100.932	3.88
105.114	59.886
109.294	86.907
113.472	1019.97
117.647	1823.98
121.821	1613.8
125.992	877.521
130.162	166.466
134.329	13.042
138.494	17.866
142.657	86.568
146.819	68.52
150.978	286.377
155.135	969.814
159.29	3425.53
163.443	2540.65
167.593	851.402
171.742	3169.18
175.889	15060.5
180.034	13154.6
184.176	1749.46
188.317	481.645
192.456	388.211
196.592	124.732
200.726	143.469
204.859	357.161
208.989	698.032
213.118	2057.6
217.244	7787.99
221.368	25142.5
225.49	16156.9
229.611	5730.88
233.729	3814.44
237.845	1003.64
241.959	201.521
246.071	738.163
250.181	1730.62
254.289	691.057
258.395	75.398
262.499	338.554
266.601	92.05
270.701	189.194
274.799	19.314
278.895	322.102
282.989	576.29
287.08	1312.18
291.17	1195.77
295.258	324.601
299.344	790.558
303.428	1092.38
307.51	260.907
311.589	214.892
315.667	121.458
319.743	76.688
323.817	361.769
327.889	978.217
331.958	2255.57
336.026	1141.28
340.092	1688.86
344.156	3053.43
348.218	4174.41
352.278	4643.37
356.336	2422.09
360.391	2159.91
364.445	4655.65
368.497	11203.5
372.547	6311.29
376.595	2708.76
380.641	1309.09
384.685	1048.79
388.727	2023.78
392.767	4972.79
396.805	3051.37
400.841	823.459
404.875	406.886
408.907	618.158
412.937	1336.24
416.966	1619.08
420.992	647.678
425.016	253.002
429.038	301.651
433.059	974.193
437.077	1324.74
441.094	261.844
445.108	25.782
449.121	37.328
453.131	1.517
457.14	262.53
461.146	702.872
465.151	666.023
469.154	195.62
473.155	39.118
477.154	95.563
481.15	23.607
485.145	33.31
489.138	39.556
493.129	36.556
497.119	92.216
501.106	148.549
505.091	170.576
509.074	878.385
513.056	1693.97
517.035	1741.37
521.013	1438.59
524.988	1605.63
528.962	2162.47
532.934	1229.15
536.904	448.735
540.872	102.192
544.838	55.432
548.802	100.391
552.764	26.068
556.724	5.459
560.682	56.499
564.639	61.866
568.593	23.415
572.546	6.343
576.496	58.008
580.445	208.407
584.392	281.106
588.337	304.936
592.28	207.884
596.221	110.114
600.16	66.049
604.097	131.247
608.033	117.555
611.966	165.267
615.898	266.847
619.828	350.051
623.755	402.998
627.681	555.191
631.605	644.916
635.527	834.109
639.448	1323.51
643.366	2252.67
647.283	4248.92
651.197	7827.51
655.11	8127.67
659.021	6808.73
662.93	8912.78
666.837	17753.9
670.742	42766.6
674.645	49100
678.546	21852.1
682.446	9703.49
686.344	6516.4
690.239	5565.58
694.133	3614.13
698.025	2185.41
701.916	1742.34
705.804	1308.36
709.69	1044.36
713.575	949.974
717.458	634.852
721.338	581.78
725.217	396.808
729.095	422.867
732.97	598.505
736.843	1282.07
740.715	1837.76
744.584	942.351
748.452	905.425
752.318	817.151
756.182	528.561
760.045	210.024
763.905	291.437
767.764	82.938
771.621	64.535
775.475	85.977
779.329	117.101
783.18	167.912
787.029	28.433
790.877	1.331
794.722	118.616
798.566	108.267
802.408	97.536
806.249	66.411
810.087	55.054
813.923	93.08
817.758	40.852
821.591	68.425
825.422	35.457
829.251	17.141
833.079	10.478
836.904	14.011
840.728	47.761
844.55	12.293
848.37	2.389
852.188	16.679
856.005	70.65
859.82	5.634
863.633	17.82
867.444	51.025
871.253	64.048
875.06	16.848
878.866	39.384
882.67	31.654
886.472	103.579
890.272	95.259
894.07	156.696
897.867	87.887
901.662	148.85
905.455	369.607
909.246	460.158
913.035	570.395
916.823	710.205
920.608	1139.39
924.392	2398
928.175	4985.9
931.955	4753.8
935.734	2281.7
939.511	1748.58
943.286	2965.34
947.059	4041.48
950.83	2157.54
954.6	1056.32
958.368	662.8
962.134	419.94
965.898	685.439
969.661	186.873
973.422	311.839
977.181	165.367
980.938	187.761
984.693	275.482
988.447	200.561
992.199	265.31
995.949	253.903
999.697	416.156
1003.44	489.485
1007.19	815.221
1010.93	1201.1
1014.67	1787.58
1018.41	3053.49
1022.15	3939.39
1025.89	7741.74
1029.62	8866.66
1033.35	3655.9
1037.08	2178.42
1040.81	1586.67
1044.54	1921.4
1048.27	2756.83
1051.99	5192.45
1055.71	13637.9
1059.43	25893.3
1063.15	13118.6
1066.87	6872.84
1070.58	5297.02
1074.3	2640.15
1078.01	1663.89
1081.72	1917.48
1085.42	5039.68
1089.13	2382.16
1092.84	1083.64
1096.54	455.334
1100.24	466.467
1103.94	307.08
1107.64	328.262
1111.33	378.982
1115.03	378.037
1118.72	216.883
1122.41	314.969
1126.1	113.299
1129.79	50.898
1133.47	27.158
1137.15	14.049
1140.84	153.193
1144.52	121.277
1148.19	77.178
1151.87	15.27
1155.55	132.832
1159.22	8.814
1162.89	112.713
1166.56	7.617
1170.23	151.324
1173.9	43.943
1177.56	120.035
1181.22	266.951
1184.89	51.875
1188.55	122.559
1192.2	66.662
1195.86	209.588
1199.52	90.301
1203.17	324.008
1206.82	165.646
1210.47	272.312
1214.12	188.221
1217.76	400.896
1221.41	272.156
1225.05	338.459
1228.69	442.561
1232.33	393.342
1235.97	355.676
1239.6	120.301
1243.24	390.615
1246.87	412.213
1250.5	288.861
1254.13	413.02
1257.76	446.572
1261.38	260.369
1265.01	389.867
1268.63	310.994
1272.25	246.512
1275.87	169.592
1279.49	30.301
1283.1	410.541
1286.72	96.41
1290.33	281.143
1293.94	118.725
1297.55	52.066
1301.16	19.498
1304.76	205.836
1308.37	80.654
1311.97	93.961
1315.57	24.852
1319.17	16.461
1322.77	20.434
1326.36	186.215
1329.95	197.416
1333.55	141.727
1337.14	56.486
1340.73	23.754
1344.32	338.697
1347.9	203.9
1351.48	635.303
1355.07	215.91
1358.65	294.598
1362.23	273.244
1365.8	48.809
1369.38	222.623
1372.95	44.721
1376.53	225.619
1380.1	44.463
1383.67	142.127
1387.23	328.947
1390.8	333.176
1394.36	512.539
1397.93	262.021
1401.49	368.816
1405.05	299.82
1408.61	127.264
1412.16	278.365
1415.71	222.562
1419.27	129.043
1422.82	458.498
1426.37	431.33
1429.92	457.682
1433.46	498.037
1437.01	488.594
1440.55	323.176
1444.09	520.109
1447.63	344.215
1451.17	305.088
1454.71	125.428
1458.24	621.277
1461.78	614.578
1465.31	250.854
1468.84	437.898
1472.37	553.031
1475.89	608.27
1479.42	468.127
1482.94	434.033
1486.46	126.252
1489.98	129.549
1493.5	102.578
1497.02	177.691
1500.53	61.064
1504.05	467.205
1507.56	104.615
1511.07	134.531
1514.58	265.875
1518.09	273.422
1521.59	322.898
1525.1	357.477
