Measurement: Raman, 514 nm, ccw, Raman Data Processed
Mineral: Tremolite
Rruff sample: R040045
Ideal chemistry: [box]Ca_2_Mg_5_Si_8_O_22_(OH)_2_
Locality: Gouverneur, New York, USA
Source: University of Arizona Mineral Museum
Description: Group of colorless acicular single crystals
Measured chemistry: Ca_2.01_(Mg_0.99_Fe_0.01_)_5_(Si_0.99_Fe_0.01_)_8_O_22_(OH)_2_
Pin_id: L00397
Orientation: Laser parallel to [-1 0 -1]. Fiducial mark perpendicular to laser is parallel to -b* (0 -1 0)
Raman shift (cm-1)	intensity
107.995	0
112.168	101.947
116.339	430.27
120.508	1049.71
124.675	1192.01
128.84	359.751
133.003	143.407
137.164	83.325
141.323	188.355
145.48	236.499
149.635	43.989
153.788	74.209
157.939	728.05
162.088	2368.19
166.235	1567.12
170.38	515.127
174.523	1392.38
178.664	3648.99
182.803	1955.08
186.94	432.8
191.076	758.715
195.209	864.784
199.34	334.317
203.47	234.82
207.597	465.768
211.722	1207.22
215.846	1999.23
219.967	3881.49
224.087	6283.85
228.204	4606.26
232.32	5828.69
236.434	4091.02
240.545	1483.22
244.655	995.306
248.763	1657.42
252.869	2229.66
256.973	892.098
261.075	244.712
265.175	17.462
269.273	59.85
273.369	167.414
277.463	16.402
281.556	120.664
285.646	376.476
289.734	663.299
293.821	415.992
297.905	248.397
301.988	649.772
306.069	685.895
310.147	504.5
314.224	524.158
318.299	344.302
322.372	278.998
326.443	193.674
330.512	657.531
334.579	921.384
338.645	664.676
342.708	768.003
346.769	1551.16
350.829	2763.66
354.887	2265.3
358.942	1265.86
362.996	1416.32
367.048	3786.67
371.098	6386.91
375.146	2267.04
379.192	987.592
383.236	828.684
387.279	1147.32
391.319	3009.57
395.358	5227.64
399.394	2500.7
403.429	1135.68
407.462	854.955
411.493	1298.39
415.522	2672.24
419.549	2165.31
423.575	835.318
427.598	424.947
431.619	600.869
435.639	918.545
439.657	410.315
443.673	131.437
447.687	200.352
451.699	78.416
455.709	90.618
459.717	21.759
463.724	121.165
467.728	158.621
471.731	84.808
475.732	60.155
479.731	175.309
483.728	359.23
487.723	282.782
491.716	146.108
495.708	239.215
499.697	292.078
503.685	414.712
507.671	417.068
511.655	1229.19
515.637	1721.1
519.617	1352.87
523.596	804.392
527.572	875.661
531.547	936.778
535.52	417.683
539.491	258.364
543.46	91.236
547.427	68.681
551.393	88.278
555.356	207.458
559.318	76.16
563.278	154.575
567.236	22.772
571.192	220.517
575.147	137.57
579.099	84.069
583.05	60.173
586.999	275.915
590.946	331.414
594.891	146.845
598.834	27.798
602.776	106.613
606.715	330.504
610.653	28.049
614.589	131.126
618.523	27.13
622.456	59.834
626.386	282.414
630.315	342.702
634.242	91.409
638.167	334.951
642.09	448.73
646.012	909.417
649.931	1365.74
653.849	1808.11
657.765	2004.19
661.679	2555.66
665.592	4606.51
669.502	10714.2
673.411	21503.7
677.318	17244
681.223	7384.26
685.126	3545.31
689.028	2545.45
692.927	1788.69
696.825	1207.53
700.721	937.088
704.616	794.361
708.508	627.838
712.399	576.686
716.288	527.598
720.175	396.428
724.06	651.529
727.944	602.297
731.825	570.754
735.705	1170.91
739.584	2069.5
743.46	2140.84
747.334	1569.54
751.207	1265.72
755.078	609.205
758.947	414.688
762.815	650.992
766.68	473.223
770.544	257.51
774.406	266.092
778.267	177.479
782.125	200.824
785.982	373.902
789.837	145.723
793.69	8.809
797.542	128.748
801.391	63.16
805.239	344.529
809.085	285.684
812.93	66.725
816.772	38.049
820.613	50.236
824.452	189.904
828.29	463.137
832.125	112.33
835.959	92.393
839.791	153.137
843.621	88.102
847.45	235.111
851.277	351.172
855.102	416.531
858.925	169.91
862.746	32.275
866.566	154.17
870.384	475.656
874.2	336.469
878.015	86.574
881.828	216.057
885.639	355.291
889.448	554.139
893.256	452.455
897.061	380.189
900.865	287.381
904.668	404.068
908.468	560.258
912.267	525.898
916.064	460.574
919.86	684.303
923.653	706.666
927.445	1425.91
931.236	2377.66
935.024	1978.45
938.811	1448.68
942.596	1247.27
946.379	1170.03
950.161	1103.39
953.94	616.965
957.719	525.889
961.495	823.881
965.27	466.793
969.043	343.652
972.814	276.154
976.583	180.836
980.351	97.465
984.117	146.156
987.882	528.857
991.644	381.496
995.405	175.912
999.165	92.676
1002.92	236.9
1006.68	610.877
1010.43	789.502
1014.18	840.969
1017.93	987.547
1021.68	1740.6
1025.43	2731.38
1029.18	6439.41
1032.92	5608.16
1036.66	2376.07
1040.4	1224.42
1044.14	690.742
1047.88	845.225
1051.62	901.537
1055.35	1626.59
1059.08	3510.95
1062.81	4295.61
1066.54	2947.35
1070.27	2820.03
1073.99	1693.67
1077.72	986.889
1081.44	859.768
1085.16	932.438
1088.88	654.635
1092.59	593.293
1096.31	169.32
1100.02	50.84
1103.73	25.436
1107.44	211.453
1111.15	575.754
1114.86	682.289
1118.57	660.531
1122.27	518.414
1125.97	96.486
1129.67	45.51
1133.37	97.371
1137.07	250.926
1140.76	709.52
1144.45	538.629
1148.15	367.506
1151.84	45.859
1155.53	233.342
1159.21	386.705
1162.9	358.924
1166.58	685.717
1170.26	866.102
1173.94	1006.76
1177.62	677.32
1181.3	248.029
1184.97	73.49
1188.65	241.746
1192.32	557.762
1195.99	731.738
1199.66	733.312
1203.33	930.703
1206.99	507.188
1210.65	90.439
1214.32	0.107
