Measurement: Raman, 514 nm, ccw, Raman Data Processed
Mineral: Tremolite
Rruff sample: R050173
Ideal chemistry: [box]Ca_2_Mg_5_Si_8_O_22_(OH)_2_
Locality: Fort Dauphin, Madagascar
Source: Marcus Origlieri
Description: Mass of colorless acicular crystals
Measured chemistry: [box]Ca_2.00_Mg_5.00_Si_8.00_O_22_(OH)_2_
Pin_id: L00486
Orientation: Laser parallel to -c* (0 0 -1). Fiducial mark perpendicular to laser is parallel to a [1 0 0]
Raman shift (cm-1)	intensity
96.748	0
100.932	13.539
105.114	333.286
109.294	87.759
113.472	1312.36
117.647	1858.73
121.821	1593.3
125.992	1057.75
130.162	405.854
134.329	213.898
138.494	350.08
142.657	316.611
146.819	248.737
150.978	99.781
155.135	1833.49
159.29	5121.82
163.443	2443.85
167.593	420.429
171.742	1672.3
175.889	7470.1
180.034	6034.43
184.176	725.773
188.317	524.363
192.456	789.315
196.592	962.074
200.726	1067.63
204.859	1556.86
208.989	1742.93
213.118	3077.45
217.244	6896.11
221.368	17564.7
225.49	14701.6
229.611	18807.9
233.729	19603.6
237.845	6388.47
241.959	2132.67
246.071	4176.31
250.181	7539.55
254.289	3882.47
258.395	1325.1
262.499	1292.98
266.601	572.023
270.701	47.777
274.799	257.834
278.895	188.787
282.989	180.85
287.08	2.642
291.17	133.079
295.258	147.849
299.344	871.693
303.428	1514.76
307.51	927.027
311.589	1008.2
315.667	478.212
319.743	237.123
323.817	214.904
327.889	221.645
331.958	587.894
336.026	524.469
340.092	1031.88
344.156	2128.36
348.218	3711.65
352.278	4771.3
356.336	2747.82
360.391	2152.78
364.445	4396.99
368.497	10010.8
372.547	6564.1
376.595	3336.69
380.641	2169.03
384.685	2052.22
388.727	4706.6
392.767	13071.9
396.805	8927.17
400.841	2786.49
404.875	1910.11
408.907	2830.76
412.937	6756.02
416.966	8118.26
420.992	3599.9
425.016	1640.64
429.038	1369.43
433.059	2638.85
437.077	3126.39
441.094	998.774
445.108	522.468
449.121	603.112
453.131	632.482
457.14	1728.9
461.146	4501.06
465.151	4513.88
469.154	1975.7
473.155	906.715
477.154	604.444
481.15	655.886
485.145	746.056
489.138	456.436
493.129	371.023
497.119	225.542
501.106	162.39
505.091	259.839
509.074	596.888
513.056	1323.64
517.035	2090.19
521.013	2146.66
524.988	2992.96
528.962	4189.02
532.934	2174.91
536.904	730.576
540.872	265.963
544.838	161.018
548.802	24.272
552.764	29.969
556.724	3.908
560.682	77.295
564.639	59.764
568.593	59.147
572.546	44.51
576.496	106.046
580.445	57.194
584.392	177.951
588.337	138.346
592.28	38.493
596.221	51.118
600.16	39.562
604.097	30.373
608.033	10.771
611.966	92.392
615.898	45.229
619.828	147.343
623.755	299.795
627.681	301.395
631.605	452.179
635.527	553.733
639.448	926.499
643.366	1362
647.283	2075.27
651.197	3316.31
655.11	3764.88
659.021	4435.12
662.93	7515.55
666.837	16610.1
670.742	41086.7
674.645	46859.9
678.546	21520.4
682.446	9694.55
686.344	6438.51
690.239	5316.87
694.133	3397.2
698.025	2113.81
701.916	1650.06
705.804	1253.75
709.69	974.875
713.575	688.348
717.458	695.004
721.338	604.879
725.217	348.277
729.095	584.555
732.97	644.947
736.843	1064.81
740.715	1375.77
744.584	1275.33
748.452	2052.74
752.318	1935.71
756.182	932.732
760.045	477.934
763.905	403.389
767.764	119.02
771.621	192.549
775.475	159.078
779.329	116.412
783.18	283.262
787.029	20.037
790.877	3.602
794.722	22.318
798.566	117.779
802.408	82.725
806.249	157.227
810.087	121.344
813.923	125.074
817.758	88.359
821.591	7.887
825.422	55.617
829.251	234.045
833.079	36.637
836.904	67.156
840.728	82.627
844.55	6.574
848.37	25.047
852.188	43.152
856.005	100.91
859.82	78.307
863.633	105.396
867.444	122.256
871.253	168.883
875.06	155.205
878.866	51.318
882.67	187.139
886.472	42.586
890.272	107.758
894.07	312.656
897.867	297.275
901.662	141.641
905.455	445.777
909.246	423.789
913.035	613.396
916.823	1016.52
920.608	1758.5
924.392	3520.45
928.175	7431.22
931.955	7471.44
935.734	3382.8
939.511	2122.53
943.286	2751.11
947.059	3479.89
950.83	2044.91
954.6	1191.62
958.368	670.947
962.134	630.814
965.898	626.799
969.661	153.312
973.422	425.123
977.181	275.078
980.938	322.365
984.693	285.447
988.447	388.207
992.199	403.846
995.949	338.973
999.697	536.473
1003.44	586.469
1007.19	833.662
1010.93	1240.61
1014.67	1935.88
1018.41	3563.99
1022.15	5371.86
1025.89	11778.6
1029.62	13806.3
1033.35	5730.65
1037.08	2627.98
1040.81	1777.42
1044.54	1905.67
1048.27	2354.14
1051.99	3780.81
1055.71	9868.27
1059.43	18606.6
1063.15	9602.89
1066.87	5470.74
1070.58	4556.72
1074.3	2361.95
1078.01	1336.93
1081.72	1020.56
1085.42	1224.41
1089.13	1138.16
1092.84	820.193
1096.54	533.715
1100.24	386.533
1103.94	250.293
1107.64	269.674
1111.33	380.27
1115.03	389.182
1118.72	206.652
1122.41	244.865
1126.1	57.195
1129.79	130.551
1133.47	222.055
1137.15	414.455
1140.84	231.09
1144.52	242.436
1148.19	18.656
1151.87	246.105
1155.55	72.715
1159.22	77.236
1162.89	129.898
1166.56	314.4
1170.23	224.973
1173.9	138.475
1177.56	11.244
1181.22	354.393
1184.89	0.371
1188.55	100.943
1192.2	130.248
1195.86	534.109
1199.52	382.695
1203.17	380.771
1206.82	402.369
1210.47	227.816
1214.12	371.479
1217.76	526.846
1221.41	379.367
1225.05	577.756
1228.69	616.047
1232.33	412.625
1235.97	538.541
1239.6	184.85
1243.24	316.131
1246.87	437.76
1250.5	406.818
1254.13	590.67
1257.76	684.527
1261.38	416.551
1265.01	376.221
1268.63	507.775
1272.25	382.209
1275.87	414.955
1279.49	357.475
1283.1	488.477
1286.72	150.938
1290.33	161.926
1293.94	201.547
1297.55	189.42
1301.16	116.369
1304.76	179.68
1308.37	124.408
1311.97	40.074
1315.57	20.078
1319.17	103.562
1322.77	154.098
1326.36	183.863
1329.95	249.229
1333.55	207.271
1337.14	124.525
1340.73	34.211
1344.32	304.092
1347.9	141.395
1351.48	344.83
1355.07	657.205
1358.65	427.57
1362.23	276.998
1365.8	274.727
1369.38	209.869
1372.95	216.951
1376.53	195.117
1380.1	27.879
1383.67	449.002
1387.23	498.703
1390.8	596.148
1394.36	789.047
1397.93	537.844
1401.49	584.215
1405.05	379.555
1408.61	209.965
1412.16	132.637
1415.71	374.43
1419.27	296.008
1422.82	483.473
1426.37	465.055
1429.92	454.422
1433.46	472.969
1437.01	571.617
1440.55	450.719
1444.09	586.188
1447.63	410.027
1451.17	425.77
1454.71	168.695
1458.24	656.043
1461.78	630.766
1465.31	423.016
1468.84	752.465
1472.37	1204.54
1475.89	809.199
1479.42	740.211
1482.94	389.32
1486.46	48.141
1489.98	492.199
1493.5	277.523
1497.02	2.762
1500.53	323.281
1504.05	210.898
1507.56	190.719
1511.07	0
