Measurement: Raman, 514 nm, ccw, Raman Data Processed
Mineral: Tremolite
Rruff sample: R050173
Ideal chemistry: [box]Ca_2_Mg_5_Si_8_O_22_(OH)_2_
Locality: Fort Dauphin, Madagascar
Source: Marcus Origlieri
Description: Mass of colorless acicular crystals
Measured chemistry: [box]Ca_2.00_Mg_5.00_Si_8.00_O_22_(OH)_2_
Pin_id: L00389
Orientation: Laser parallel to a* (1 0 0). Fiducial mark perpendicular to laser is parallel to b [0 1 0]
Raman shift (cm-1)	intensity
88.374	0
92.562	28.252
96.748	107.098
100.932	285.209
105.114	669.891
109.294	1067.19
113.472	3389.15
117.647	5984.99
121.821	9569.49
125.992	6368.16
130.162	2128.35
134.329	1090.67
138.494	1154.74
142.657	1038.83
146.819	761.074
150.978	812.494
155.135	1738.84
159.29	2370.88
163.443	1459.24
167.593	1054.43
171.742	3246.95
175.889	6777.62
180.034	3546.89
184.176	1733.48
188.317	1920.16
192.456	2455.16
196.592	3035.58
200.726	3659.02
204.859	4145.34
208.989	4037.69
213.118	3897.85
217.244	5487.93
221.368	7557.71
225.49	3737.09
229.611	4086
233.729	2474.42
237.845	832.438
241.959	450.197
246.071	1167.95
250.181	1365.96
254.289	616.027
258.395	891.705
262.499	1030.34
266.601	80.521
270.701	228.436
274.799	178.289
278.895	268.539
282.989	20.223
287.08	808.541
291.17	246.475
295.258	64.01
299.344	420.994
303.428	247.256
307.51	172.668
311.589	157.203
315.667	119.195
319.743	63.271
323.817	134.75
327.889	955.469
331.958	1135.55
336.026	645.541
340.092	1037.16
344.156	1275.94
348.218	1950.99
352.278	2073.89
356.336	896.221
360.391	1237.8
364.445	3338.79
368.497	5068.75
372.547	2287.78
376.595	1167.95
380.641	1059.56
384.685	1310.37
388.727	4604.16
392.767	7518.16
396.805	3344.66
400.841	1501.47
404.875	859.848
408.907	1295.69
412.937	2556.02
416.966	2083.77
420.992	871.389
425.016	638.824
429.038	592.227
433.059	933.031
437.077	711.824
441.094	604.527
445.108	1086.56
449.121	1499.71
453.131	3115.36
457.14	8865.08
461.146	16547.4
465.151	10227.7
469.154	4279.05
473.155	2250.86
477.154	1542.16
481.15	1301.72
485.145	909.039
489.138	733.293
493.129	627.75
497.119	291.486
501.106	364.783
505.091	357.652
509.074	720.066
513.056	812.072
517.035	1083.7
521.013	1345.07
524.988	736.156
528.962	606.934
532.934	457.35
536.904	167.379
540.872	196.979
544.838	13.811
548.802	214.869
552.764	103.078
556.724	140.727
560.682	177.543
564.639	86.303
568.593	79.119
572.546	144.047
576.496	58.551
580.445	102.6
584.392	165.945
588.337	78.539
592.28	101.543
596.221	55.051
600.16	31.748
604.097	11.797
608.033	65.26
611.966	138.738
615.898	11.621
619.828	54.389
623.755	306.406
627.681	137.867
631.605	409.279
635.527	330.781
639.448	741.27
643.366	912.09
647.283	1672.11
651.197	2361.78
655.11	2439.89
659.021	3347.65
662.93	5717.43
666.837	14388.4
670.742	29678.4
674.645	21834.9
678.546	9015.65
682.446	4415.03
686.344	2975.83
690.239	2265.44
694.133	1913.15
698.025	1223.68
701.916	996.506
705.804	839.279
709.69	741.441
713.575	511.742
717.458	518.037
721.338	465.066
725.217	528.133
729.095	691.184
732.97	772.807
736.843	904.592
740.715	1064.97
744.584	1035.98
748.452	1452.78
752.318	1407.25
756.182	773.527
760.045	261.396
763.905	558.404
767.764	391.518
771.621	258.326
775.475	274.893
779.329	381.115
783.18	318.324
787.029	85.766
790.877	403.457
794.722	370.756
798.566	467.967
802.408	465.104
806.249	582.479
810.087	209.604
813.923	136.506
817.758	108.484
821.591	59.678
825.422	34.299
829.251	168.877
833.079	84.379
836.904	15.828
840.728	45.756
844.55	79.727
848.37	193.115
852.188	95.889
856.005	328.252
859.82	79.664
863.633	27.982
867.444	3.432
871.253	234.727
875.06	135.738
878.866	56.521
882.67	127.096
886.472	17.371
890.272	117.451
894.07	387.291
897.867	376.883
901.662	166.242
905.455	415.383
909.246	134.32
913.035	292.746
916.823	511.16
920.608	1018.6
924.392	1835.72
928.175	2702.64
931.955	1999.72
935.734	876.578
939.511	981.928
943.286	1188.64
947.059	1205.58
950.83	822.018
954.6	460.279
958.368	398.133
962.134	427.215
965.898	356.279
969.661	157.338
973.422	338.729
977.181	282.357
980.938	286.326
984.693	345.094
988.447	249.84
992.199	577.992
995.949	327.799
999.697	539.697
1003.44	651.453
1007.19	473.623
1010.93	526.748
1014.67	1164.87
1018.41	1695.54
1022.15	2537.14
1025.89	5007.26
1029.62	3897.45
1033.35	1421.8
1037.08	1212.58
1040.81	870.369
1044.54	1149.42
1048.27	1139.68
1051.99	2519.53
1055.71	4627.29
1059.43	5534.14
1063.15	3091.57
1066.87	3179.59
1070.58	2336.29
1074.3	1362.86
1078.01	1268.19
1081.72	1399.8
1085.42	1147.11
1089.13	931.219
1092.84	404.895
1096.54	389.371
1100.24	301.703
1103.94	113.074
1107.64	304.039
1111.33	233.691
1115.03	352.742
1118.72	1080.54
1122.41	148.934
1126.1	36.16
1129.79	73.328
1133.47	89.41
1137.15	26.91
1140.84	101.715
1144.52	259.066
1148.19	204.094
1151.87	511.648
1155.55	694.738
1159.22	294.621
1162.89	189.488
1166.56	44.25
1170.23	138.684
1173.9	132.598
1177.56	83.957
1181.22	429.125
1184.89	98.105
1188.55	424.336
1192.2	26.48
1195.86	328.402
1199.52	140.113
1203.17	509.332
1206.82	533.812
1210.47	319.926
1214.12	545.238
1217.76	425.488
1221.41	479.523
1225.05	588.945
1228.69	545.047
1232.33	539.449
1235.97	742.164
1239.6	93.641
1243.24	463.195
1246.87	322.301
1250.5	91.164
1254.13	522.477
1257.76	353.859
1261.38	265.18
1265.01	297.875
1268.63	342.707
1272.25	450.672
1275.87	680.523
1279.49	351.375
1283.1	396.758
1286.72	12.91
1290.33	321.129
1293.94	11.887
1297.55	190.27
1301.16	177.969
