Measurement: Raman, 514 nm, ccw, Raman Data Processed
Mineral: Tremolite
Rruff sample: R040045
Ideal chemistry: [box]Ca_2_Mg_5_Si_8_O_22_(OH)_2_
Locality: Gouverneur, New York, USA
Source: University of Arizona Mineral Museum
Description: Group of colorless acicular single crystals
Measured chemistry: Ca_2.01_(Mg_0.99_Fe_0.01_)_5_(Si_0.99_Fe_0.01_)_8_O_22_(OH)_2_
Pin_id: M00236
Orientation: Laser parallel to a [1 0 0]. Fiducial mark perpendicular to laser is parallel to -b* (0 -1 0)
Raman shift (cm-1)	intensity
131.615	0
134.39	343.061
137.164	1531.65
139.937	2551.23
142.709	2875.44
145.48	2277.64
148.25	927.079
151.019	350.12
153.788	140.109
156.555	310.127
159.322	725.207
162.088	857.416
164.853	239.64
167.617	150.845
170.38	224.873
173.142	959.475
175.904	2954.26
178.664	4139.36
181.424	2484.78
184.183	940.496
186.94	206.46
189.698	272.639
192.454	418.951
195.209	235.325
197.963	58.133
200.717	190.723
203.47	122.271
206.221	41.404
208.972	315.372
211.722	941.163
214.472	1427.49
217.22	1734.28
219.967	3181.85
222.714	4279.91
225.46	3558.45
228.204	2857
230.948	3285.69
233.692	3104.38
236.434	1853.03
239.175	791.674
241.916	570.313
244.655	538.927
247.394	917.441
250.132	1755.29
252.869	1272.66
255.605	610.04
258.34	447.495
261.075	205.043
263.808	342.668
266.541	120.576
269.273	208.896
272.004	72.584
274.734	23.96
277.463	34.743
280.192	63.47
282.919	152.184
285.646	260.714
288.372	709.413
291.097	820.464
293.821	373.896
296.544	186.392
299.266	332.977
301.988	489.761
304.709	523.595
307.428	430.752
310.147	342.999
312.865	242.632
315.583	215.762
318.299	247.745
321.015	295.857
323.729	247.639
326.443	388.609
329.156	659.187
331.868	1096.94
334.579	984.326
337.29	742.878
339.999	721.621
342.708	930.545
345.416	989.148
348.123	977.765
350.829	996.049
353.534	964.577
356.239	842.512
358.942	580.23
361.645	689.886
364.347	1508.13
367.048	3280.87
369.748	4380.91
372.448	3018.72
375.146	1577.63
377.844	1116.73
380.54	845.607
383.236	1015.46
385.932	1395.19
388.626	2644.7
391.319	5363.94
394.012	7733.41
396.704	5796.77
399.394	2847.94
402.084	1728.71
404.774	1303.08
407.462	1164.7
410.15	1443.98
412.836	2336.61
415.522	3096.05
418.207	2359.54
420.891	1478.3
423.575	846.676
426.257	265.293
428.939	313.664
431.619	401.945
434.299	420.938
436.978	505.812
439.657	383.121
442.334	153.682
445.011	61.879
447.687	69.924
450.361	207.83
453.036	135.895
455.709	33.533
458.381	41.121
461.053	38.332
463.724	65.689
466.394	17.34
469.063	29.367
471.731	105.957
474.398	62.408
477.065	268.68
479.731	104.918
482.396	271.115
485.06	727.26
487.723	283.352
490.385	329.398
493.047	279.387
495.708	201.363
498.368	187.289
501.027	173.174
503.685	259.047
506.342	304.916
508.999	460.73
511.655	586.51
514.31	632.242
516.964	637.947
519.617	443.623
522.27	359.379
524.921	675.293
527.572	471.326
530.222	437.398
532.871	413.449
535.52	289.439
538.167	325.363
540.814	31.273
543.46	67.148
546.105	62.656
548.749	78.674
551.393	54.367
554.035	70.062
556.677	194.627
559.318	99.451
561.958	75.98
564.597	39.207
567.236	4.57
569.874	60.023
572.511	4.383
575.147	229.471
577.782	183.736
580.416	147.807
583.05	161.791
585.683	355.682
588.315	249.48
590.946	43.193
593.576	136.867
596.206	120.484
598.834	35.975
601.462	107.195
604.089	163.85
606.715	191.145
609.341	170.084
611.965	189.338
614.589	254.893
617.212	247.645
619.834	169.018
622.456	225.842
625.076	232.553
627.696	474.844
630.315	527.445
632.933	553.506
635.551	546.986
638.167	860.055
640.783	805.289
643.398	977.797
646.012	1014.32
648.625	1127
651.237	1519.87
653.849	1683.51
656.46	1846.32
659.07	2488.52
661.679	3361.6
664.288	4983.26
666.895	8557.66
669.502	15499.6
672.108	24902.2
674.713	26688.3
677.318	18269.7
679.921	10347.5
682.524	6024.29
685.126	3906.62
687.727	2727.78
690.328	1839.39
692.927	1500.24
695.526	1341.28
698.124	1022.2
700.721	692.824
703.318	734.271
705.913	803.758
708.508	793.535
711.102	628.398
713.695	441.607
716.288	194.061
718.879	385.006
721.47	335.664
724.06	343.855
726.649	540.566
729.238	129.299
731.825	298.289
734.412	612.723
736.998	1001.05
739.584	1128.47
742.168	1286
744.752	1162.98
747.334	1420.47
749.916	1496.93
752.498	1303.52
755.078	947.447
757.658	922.277
760.237	527.816
762.815	363.645
765.392	439.234
767.969	204.582
770.544	200.242
773.119	225.451
775.693	370.512
778.267	175.703
780.839	80.754
783.411	355.705
785.982	100.492
788.552	55.148
791.122	59.619
793.69	153.895
796.258	477.963
798.825	38.168
801.391	135.443
803.957	319.062
806.522	72.957
809.085	286.43
811.649	70.303
814.211	155.148
816.772	258.148
819.333	35.516
821.893	348.949
824.452	62.777
827.011	39.51
829.568	193.896
832.125	16.242
834.681	53.291
837.236	150.57
839.791	452.822
842.345	174.541
844.898	205.088
847.45	146.006
850.001	148.744
852.552	44.762
855.102	117.604
857.651	206.865
860.199	165.67
862.746	174.09
865.293	47.449
867.839	490.186
870.384	417.207
872.928	374.607
875.472	251.854
878.015	88.939
880.557	135.859
883.098	211.855
885.639	88.387
888.178	154.859
890.717	311.16
893.256	414.299
895.793	313.275
898.33	89.09
900.865	484.736
903.401	710.229
905.935	325.539
908.468	540.668
911.001	385.561
913.533	520.246
916.064	564.637
918.595	658.406
921.124	781.297
923.653	1234.33
926.182	1607.06
928.709	2429.18
931.236	2730.69
933.761	2431.74
936.286	1794.04
938.811	1054.55
941.334	855.307
943.857	805.363
946.379	955.732
948.9	1064.66
951.421	510.203
953.94	411.35
956.459	422.705
958.978	471.123
961.495	250.385
964.012	208.268
966.527	176.557
969.043	34.133
971.557	184.285
974.071	21.982
976.583	199.018
979.095	253.025
981.607	310.906
984.117	292.043
986.627	0.49
989.136	46.846
991.644	383.746
994.152	189.016
996.659	174.203
999.165	1.717
1001.67	19.072
1004.17	26.873
1006.68	101.947
1009.18	275.684
1011.68	166.65
1014.18	123.551
1016.68	339.701
1019.18	705.287
1021.68	1004.13
1024.18	2010.64
1026.68	2848.6
1029.18	3986.48
1031.67	3575.17
1034.17	2163.73
1036.66	1102.06
1039.16	580.174
1041.65	718.109
1044.14	635.861
1046.63	833.453
1049.12	610.922
1051.62	1158.34
1054.11	1314.28
1056.59	2337.98
1059.08	3222.59
1061.57	3222.78
1064.06	2607.56
1066.54	2179.25
1069.03	2495.95
1071.51	1885.32
1073.99	1461.23
1076.47	1141.25
1078.96	793.043
1081.44	573.336
1083.92	767.078
1086.4	1140.5
1088.88	603.555
1091.36	306.105
1093.83	228.09
1096.31	299.457
1098.79	240.148
1101.26	0.105
1103.73	9.645
1106.21	509.332
1108.68	270.254
1111.15	111.766
1113.62	115.055
1116.1	338.738
1118.57	402.418
1121.04	196.195
1123.5	360.34
1125.97	50.43
1128.44	313.152
1130.9	44.773
1133.37	69.527
1135.83	127.762
1138.3	216.996
1140.76	125.609
1143.22	362.031
1145.69	512.582
