Measurement: Raman, 514 nm, ccw, Raman Data Processed
Mineral: Tremolite
Rruff sample: R050167
Ideal chemistry: [box]Ca_2_Mg_5_Si_8_O_22_(OH)_2_
Locality: Hunza Valley, Afghanistan
Source: Marcus Origlieri
Description: Green tabular crystals
Measured chemistry: ([box]_0.90_Na_0.10_)(Ca_0.98_Mg_0.01_Fe^2+^_0.01_)_2_(Mg_0.94_Al_0.06_)_5_(Si_0.95_Al_0.05_)_8_O_22_((OH)_0.98_F_0.02_)_2_
Pin_id: M00489
Orientation: Laser parallel to (1 0 1). Fiducial mark perpendicular to laser is parallel to -b [0 -1 0]
Raman shift (cm-1)	intensity
90.446	0
94.639	30.717
98.831	85.437
103.02	44.729
107.207	385.296
111.393	897.146
115.576	1699.27
119.757	3722.25
123.936	1832.99
128.112	565.931
132.287	151.377
136.46	51.399
140.63	21.411
144.799	29.562
148.965	36.338
153.13	93.755
157.292	1530.91
161.452	5057.84
165.611	3790.55
169.767	2589.03
173.921	5112.42
178.073	9834.89
182.222	6753.28
186.37	2579.72
190.516	1311.4
194.66	943.453
198.801	702.886
202.941	826.685
207.079	1419.53
211.214	2503.13
215.348	5247.03
219.479	11518
223.608	16188.9
227.736	10679.6
231.861	8140.09
235.984	7960.43
240.105	4531.59
244.224	2524.59
248.342	3028.53
252.457	3917.79
256.57	2701.02
260.681	1765.27
264.79	1229.39
268.896	481.32
273.001	34.238
277.104	28.462
281.205	22.733
285.304	96.726
289.401	255.633
293.495	290.305
297.588	430.344
301.679	1003.22
305.767	1004.95
309.854	742.627
313.939	667.648
318.021	411.942
322.102	351.464
326.181	522.41
330.257	1020.86
334.332	1197.34
338.405	1176.44
342.475	1787.78
346.544	3077.25
350.61	4565.08
354.675	4566.44
358.738	3801.57
362.798	4273.53
366.857	5988.32
370.913	8025.94
374.968	6933.39
379.021	4715.66
383.071	3239.75
387.12	3213.65
391.166	4752.95
395.211	6270.13
399.254	3789.95
403.294	1866.94
407.333	1421.05
411.37	2030.73
415.405	3057.92
419.437	3059.83
423.468	1990.62
427.497	1269.16
431.524	1154.44
435.549	1185.06
439.572	823.485
443.593	360.348
447.611	182.29
451.628	156.292
455.644	6.103
459.657	91.87
463.668	20.309
467.677	13.644
471.684	108.147
475.689	14.181
479.692	92.615
483.694	77.739
487.693	111.804
491.691	10.51
495.686	14.838
499.68	40.804
503.671	240.415
507.661	685.718
511.648	1678.71
515.634	2518.4
519.618	2567.77
523.6	2255.84
527.58	2393.59
531.558	2557.02
535.534	1812.14
539.508	905.94
543.48	535.421
547.45	336.582
551.418	232.415
555.385	104.893
559.349	37.988
563.312	7.354
567.272	8.29
571.231	46.139
575.187	27.973
579.142	21.264
583.095	57.105
587.046	36.565
590.995	8.64
594.942	7.306
598.888	79.632
602.831	98.67
606.772	144.326
610.712	143.927
614.649	199.016
618.585	320.231
622.519	707.706
626.45	947.518
630.38	976.997
634.308	1142.55
638.235	1548.06
642.159	2346.26
646.081	3658
650.002	5191.67
653.92	6895.35
657.837	8427.04
661.752	10584.7
665.664	16719.1
669.575	29953.3
673.484	41677.3
677.392	29900.7
681.297	15833.9
685.2	9426.8
689.102	6919.44
693.002	5301.82
696.899	3773.93
700.795	2686.8
704.689	2028.41
708.581	1395.96
712.472	1028.89
716.36	884.013
720.247	642.421
724.131	558.261
728.014	590.064
731.895	683.35
735.774	1017.49
739.651	1511.33
743.526	1413.58
747.4	1029.08
751.271	809.344
755.141	493.681
759.009	243.251
762.875	179.443
766.739	114.042
770.601	41.925
774.462	26.566
778.32	47.498
782.177	32.197
786.032	6.327
789.885	17.854
793.736	18.122
797.585	30.759
801.433	31.554
805.279	26.219
809.122	26.663
812.964	69.968
816.804	110.245
820.643	105.396
824.479	50.485
828.314	188.516
832.147	213.503
835.977	222.452
839.807	228.367
843.634	315.26
847.459	219.139
851.283	215.017
855.105	172.926
858.925	218.864
862.743	285.861
866.559	243.898
870.373	148.087
874.186	125.418
877.997	95.928
881.806	126.624
885.613	121.569
889.419	323.702
893.222	415.993
897.024	393.422
900.824	452.108
904.622	566.942
908.418	833.895
912.213	1094.95
916.005	1229.1
919.796	1785.07
923.585	2469.39
927.373	3831.55
931.158	4197.6
934.942	3050.46
938.724	2228.88
942.504	2076.28
946.282	2080.39
950.059	1986.5
953.833	1644.62
957.606	1112.58
961.377	913.127
965.147	721.291
968.914	579.336
972.68	567.42
976.444	543.54
980.206	585.739
983.967	664.791
987.725	633.321
991.482	736.818
995.237	826.723
998.99	1351.8
1002.74	1863.35
1006.49	2198.39
1010.24	2533.32
1013.99	3294.89
1017.73	3874.11
1021.47	4707.11
1025.21	5614
1028.95	7283.12
1032.69	6432.48
1036.42	4874.9
1040.16	4226.4
1043.89	5941.95
1047.62	5838.15
1051.35	7683.64
1055.08	10477.2
1058.8	11521.1
1062.53	9574.35
1066.25	7196.69
1069.97	5198.25
1073.68	3252.35
1077.4	2035.82
1081.11	1527.17
1084.83	1263.54
1088.54	1085.62
1092.25	1026.86
1095.95	727.673
1099.66	598.239
1103.36	499.516
1107.07	531.556
1110.77	471.931
1114.47	471.775
1118.16	392.069
1121.86	140.746
1125.55	240.671
1129.24	55.142
1132.93	159.384
1136.62	118.452
1140.31	107.238
1143.99	246.194
1147.68	74.394
1151.36	47.787
1155.04	20.482
1158.71	108.765
1162.39	6.996
1166.07	53.187
1169.74	38.934
1173.41	33.376
1177.08	7.01
1180.75	11.075
1184.41	104.646
1188.08	10.494
1191.74	94.132
1195.4	187.91
1199.06	81.215
1202.71	45.03
1206.37	37.254
1210.02	65.805
1213.68	86.516
1217.33	2.558
1220.98	251.578
1224.62	391.363
1228.27	197.406
1231.91	268.672
1235.55	273.172
1239.19	278.632
1242.83	301.959
1246.47	215.419
1250.1	288.324
1253.74	471.776
1257.37	385.65
1261	348.72
1264.63	420.811
1268.25	382.068
1271.88	310.849
1275.5	209.342
1279.12	368.786
1282.74	465.897
1286.36	422.046
1289.98	486.289
1293.59	408.526
1297.21	357.412
1300.82	256.176
1304.43	141.925
1308.04	359.466
1311.64	339.263
1315.25	464.222
1318.85	484.4
1322.45	518.667
1326.05	344.595
1329.65	259.711
1333.24	198.234
1336.84	155.518
1340.43	41.236
1344.03	215.957
1347.61	211.946
1351.2	266.945
1354.79	391.874
1358.37	327.212
1361.96	390.84
1365.54	205.102
1369.12	42.003
1372.69	140.697
1376.27	95.288
1379.85	141.304
1383.42	405.65
1386.99	297.985
1390.56	520.475
1394.13	432.822
1397.7	233.96
1401.26	272.197
1404.82	139.316
1408.38	103.226
1411.94	267.28
1415.5	132.425
1419.06	227.429
1422.62	436.1
1426.17	283.83
1429.72	521.347
1433.27	582.629
1436.82	516.624
1440.37	655.846
1443.91	749.591
1447.45	621.539
1450.99	710.494
1454.54	673.919
1458.07	753.981
1461.61	736.609
1465.15	743.842
1468.68	773.972
1472.21	849.396
1475.74	621.392
1479.27	416.705
1482.8	354.033
1486.32	329.984
1489.85	216.673
1493.37	105.657
1496.89	17.656
1500.41	7.674
1503.93	242.039
1507.44	400.447
1510.96	501.324
