Measurement: Raman, 514 nm, ccw, Raman Data Processed
Mineral: Tremolite
Rruff sample: R040045
Ideal chemistry: [box]Ca_2_Mg_5_Si_8_O_22_(OH)_2_
Locality: Gouverneur, New York, USA
Source: University of Arizona Mineral Museum
Description: Group of colorless acicular single crystals
Measured chemistry: Ca_2.01_(Mg_0.99_Fe_0.01_)_5_(Si_0.99_Fe_0.01_)_8_O_22_(OH)_2_
Pin_id: M00230
Orientation: Laser parallel to b* (0 1 0). Fiducial mark perpendicular to laser is parallel to -c [0 0 -1]
Raman shift (cm-1)	intensity
133.003	0
135.777	3.623
138.55	209.838
141.323	164.121
144.094	1.658
146.865	188.373
149.635	251.914
152.403	0.738
155.171	123.805
157.939	330.35
160.705	269.775
163.47	361.633
166.235	495.586
168.998	591.379
171.761	708.828
174.523	1587.77
177.284	2778.02
180.044	3029.37
182.803	1451.69
185.562	684.906
188.319	528.939
191.076	263.725
193.831	49.213
196.586	155.369
199.34	352.191
202.093	365.977
204.846	337.787
207.597	336.531
210.347	515.857
213.097	455.725
215.846	886.068
218.594	1456.46
221.341	2746.89
224.087	2997.46
226.832	2128.2
229.577	1609.26
232.32	1320.66
235.063	852.318
237.805	591.434
240.545	366.406
243.286	338.818
246.025	461.467
248.763	534.357
251.501	617.496
254.237	470.867
256.973	344.643
259.708	499.062
262.442	303.719
265.175	108.717
267.907	334.166
270.639	100.006
273.369	386.287
276.099	363.01
278.828	269.857
281.556	256.322
284.283	363.939
287.009	471.18
289.734	678.537
292.459	546.004
295.183	463.648
297.905	428.092
300.627	357.625
303.348	469.061
306.069	391.195
308.788	423.951
311.507	317.23
314.224	370.971
316.941	285.113
319.657	179.625
322.372	264.465
325.086	297.004
327.8	442.426
330.512	809.396
333.224	1075.31
335.935	771.459
338.645	597.811
341.354	455.848
344.062	532.588
346.769	569.506
349.476	736.594
352.182	793.844
354.887	791.252
357.591	558.807
360.294	826.504
362.996	885.117
365.698	1793.08
368.398	3361.17
371.098	3429.38
373.797	1957.7
376.495	1076.12
379.192	623.686
381.889	689.129
384.584	629.871
387.279	869.439
389.973	1538.36
392.666	2814.62
395.358	2956.23
398.049	1736.48
400.74	782.266
403.429	541.727
406.118	607.453
408.806	545.871
411.493	653.129
414.179	812.873
416.865	815.516
419.549	612.533
422.233	362.748
424.916	22.697
427.598	142.76
430.279	153.256
432.959	73.391
435.639	214.193
438.318	44.748
440.996	354.959
443.673	235.189
446.349	205.443
449.024	115.734
451.699	106.064
454.372	3.629
457.045	306.701
459.717	137.307
462.388	2.244
465.059	73.764
467.728	118.896
470.397	219.562
473.065	10.283
475.732	81.256
478.398	62.314
481.063	283.225
483.728	165.768
486.391	185.207
489.054	336.234
491.716	257.371
494.377	68.512
497.038	279.723
499.697	38.992
502.356	212.277
505.014	573.625
507.671	114.969
510.327	276.312
512.982	297.656
515.637	389.012
518.291	200.363
520.944	551.711
523.596	323.066
526.247	54.418
528.897	115.762
531.547	147.094
534.196	98.406
536.844	190.293
539.491	109.281
542.137	28.473
544.783	52.629
547.427	363.34
550.071	15.586
552.714	28.422
555.356	62.004
557.998	240.023
560.638	100.926
563.278	79.066
565.917	122.43
568.555	82.641
571.192	82.488
573.829	112.047
576.464	111.547
579.099	60.711
581.733	140.309
584.366	128.121
586.999	37.117
589.63	146.043
592.261	76.414
594.891	89.816
597.52	214.027
600.148	372.75
602.776	330.957
605.402	272.055
608.028	260.578
610.653	299.035
613.277	329.828
615.901	98.137
618.523	438.488
621.145	489.227
623.766	677.5
626.386	386.949
629.006	435.48
631.624	315.094
634.242	650.824
636.859	658.766
639.475	566.348
642.09	622.473
644.705	834.398
647.318	1323.31
649.931	1289.22
652.543	1367.06
655.155	1457.59
657.765	1504.5
660.375	1659.87
662.984	2006.56
665.592	3193.32
668.199	5680.16
670.805	10078.9
673.411	14225.3
676.016	12241.8
678.62	7689.61
681.223	4169.73
683.825	2376.64
686.427	1752.94
689.028	1499.11
691.628	1005.16
694.227	620.238
696.825	622.652
699.423	596.336
702.02	481.922
704.616	86.672
707.211	8.09
709.805	367.492
712.399	202.516
714.992	416.344
717.584	604.594
720.175	182.934
722.765	237.34
725.355	252.934
727.944	319.777
730.532	423.828
733.119	457.762
735.705	171.508
738.291	324.988
740.876	428.652
743.46	311.594
746.043	64.828
748.626	867.777
751.207	1127.12
753.788	889.746
756.368	462.52
758.947	45.172
761.526	587.668
764.104	330.035
766.68	132.254
769.257	574.363
771.832	46.25
774.406	188.07
776.98	339.742
779.553	191.277
782.125	182.668
784.697	83.922
787.267	515.023
789.837	405.727
792.406	356.258
794.974	193.152
797.542	227.078
800.108	567.172
802.674	607.008
805.239	166.641
807.804	153.863
810.367	125.281
812.93	664.52
815.492	793.746
818.053	342.5
820.613	281.254
823.173	406.969
825.732	538.055
828.29	477.355
830.847	130.203
833.403	10.25
835.959	589.824
838.514	367.449
841.068	426.031
843.621	404.906
846.174	242.223
848.726	559.477
851.277	946.777
853.827	694.016
856.376	524.406
858.925	1149.9
861.473	761.434
864.02	1018.38
866.566	474.781
869.112	564.328
871.656	700.273
874.2	586.477
876.744	281.664
879.286	827.867
881.828	574.301
884.369	503.543
886.909	445.762
889.448	412.656
891.987	466.242
894.524	636.434
897.061	712.594
899.598	647.184
902.133	36.801
904.668	629.102
907.202	924.629
909.735	779.539
912.267	662.188
914.799	686.574
917.33	410.855
919.86	914.133
922.389	306.602
924.918	378.402
927.445	981.645
929.972	1473.27
932.499	1256.13
935.024	688.133
937.549	950.023
940.073	1263.03
942.596	548.223
945.118	380.984
947.64	587.859
950.161	610.25
952.681	1008.94
955.2	630.055
957.719	551.203
960.236	381.129
962.753	372.691
965.27	154.918
967.785	359.02
970.3	324.41
972.814	316.832
975.327	359.57
977.84	50.125
980.351	357.203
982.862	155.723
985.372	532.156
987.882	546.078
990.39	139.66
992.898	23.523
995.405	216.809
997.912	470.652
1000.42	614.453
1002.92	648.242
1005.43	672.016
1007.93	635.258
1010.43	308.828
1012.93	372.289
1015.43	705.555
1017.93	1248.97
1020.43	1003.22
1022.93	896.234
1025.43	1619.2
1027.93	3162.11
1030.42	3224.83
1032.92	2097.77
1035.42	1140.73
1037.91	1233.72
1040.4	1676.93
1042.9	830.48
1045.39	574.477
1047.88	1168.81
1050.37	1562.46
1052.86	907.352
1055.35	1089.58
1057.84	1348.05
1060.33	2856.23
1062.81	2481.19
1065.3	1698.67
1067.78	1668.95
1070.27	2778.93
1072.75	1929.9
1075.23	968.852
1077.72	887.594
1080.2	1196.12
1082.68	1084.17
1085.16	651.695
1087.64	878.574
1090.12	1064.64
1092.59	1359.68
1095.07	323.965
1097.55	332.398
1100.02	413.754
1102.5	195.75
1104.97	688.828
1107.44	282.555
1109.92	357.25
1112.39	1063.49
1114.86	372.289
1117.33	55.867
1119.8	238.871
1122.27	1057.47
1124.74	931.449
1127.2	134.621
1129.67	382.32
1132.14	508.082
