Measurement: Raman, 514 nm, ccw, Raman Data Processed
Mineral: Trilithionite
Rruff sample: R040101
Ideal chemistry: KLi_1.5_Al_1.5_(Si_3_Al)O_10_F_2_
Locality: Zambezi Region, Mozambique
Source: University of Arizona Mineral Museum
Description: Aggregate of purple hexagonal plates, polytype is 2M1
Measured chemistry: (K_0.84_Li_0.13_Na_0.02_)(Li_0.54_Al_0.44_Mn_0.02_)_3_(Si_0.82_Al_0.18_)_4_O_10_F_2.00_
Pin_id: M00449
Orientation: Laser parallel to -a* (-1 0 0). Fiducial mark perpendicular to laser is parallel to b [0 1 0]
Raman shift (cm-1)	intensity
139.937	0
144.094	108.481
148.25	16.806
152.403	63.18
156.555	306.257
160.705	1072.25
164.853	2150.16
168.998	4143.17
173.142	7576.17
177.284	10619.5
181.424	12011.3
185.562	10471.8
189.698	9885.73
193.831	9626.03
197.963	7704.77
202.093	5838.09
206.221	4533.58
210.347	4338.91
214.472	4220.81
218.594	3893.04
222.714	3792.36
226.832	4102.09
230.948	5001.88
235.063	6099.45
239.175	7772.36
243.286	9134.15
247.394	10245.1
251.501	12009.1
255.605	15959.9
259.708	20313.5
263.808	18673
267.907	12077.3
272.004	6723.45
276.099	4115.4
280.192	2678.12
284.283	1947.58
288.372	1540.78
292.459	1287.67
296.544	1382.25
300.627	1184.53
304.709	975.925
308.788	851.677
312.865	538.37
316.941	609.384
321.015	515.712
325.086	438.256
329.156	358.957
333.224	117.116
337.29	141.776
341.354	3.822
345.416	103.431
349.476	217.108
353.534	227.439
357.591	199.682
361.645	232.923
365.698	490.588
369.748	553.897
373.797	1048.82
377.844	1481.31
381.889	1350.35
385.932	1492.89
389.973	1802.95
394.012	2109.51
398.049	2623.57
402.084	3088.09
406.118	3002.46
410.15	2638.92
414.179	2153.21
418.207	1551.87
422.233	1028.89
426.257	685.264
430.279	585.969
434.299	344
438.318	288.349
442.334	260.003
446.349	285.953
450.361	243.188
454.372	116.7
458.381	83.477
462.388	200.508
466.394	347.816
470.397	461.619
474.398	501.949
478.398	560.77
482.396	240.037
486.391	95.695
490.385	40.396
494.377	16.146
498.368	188.697
502.356	187.594
506.342	277.613
510.327	123.566
514.31	90.789
518.291	9.553
522.27	268.859
526.247	465.617
530.222	672.863
534.196	619.357
538.167	858.189
542.137	1169.31
546.105	1353.65
550.071	2211.2
554.035	2859.93
557.998	3138.83
561.958	3123.91
565.917	2582.17
569.874	1732.6
573.829	1185.26
577.782	705.053
581.733	414.98
585.683	420.021
589.63	358.174
593.576	248.449
597.52	299.824
601.462	321.268
605.402	375.768
609.341	489.32
613.277	756.916
617.212	907.525
621.145	1014.19
625.076	1279.88
629.006	1068.58
632.933	1403.29
636.859	1409.98
640.783	1406.66
644.705	1498.31
648.625	1453.92
652.543	1572.46
656.46	1630.24
660.375	1745.3
664.288	1937.08
668.199	1856.08
672.108	2514.38
676.016	2975.02
679.921	3646
683.825	4562.92
687.727	6123.94
691.628	8410.67
695.526	10997.9
699.423	16490.5
703.318	23065.9
707.211	30621.2
711.102	30391.4
714.992	20753.1
718.879	11359.4
722.765	6791.38
726.649	4296.22
730.532	2958.51
734.412	2730.64
738.291	2735.5
742.168	3105.16
746.043	3297.39
749.916	3372.46
753.788	3436.74
757.658	2980.08
761.526	2135.19
765.392	1833.07
769.257	1484.15
773.119	1182.56
776.98	1004.73
780.839	1166.67
784.697	988.352
788.552	907.789
792.406	605.979
796.258	408.912
800.108	424.588
803.957	160.131
807.804	163.289
811.649	38.037
815.492	152.742
819.333	146.885
823.173	13.564
827.011	88.529
830.847	36.295
834.681	67.9
838.514	7.648
842.345	6.59
846.174	67.875
850.001	70.076
853.827	216.598
857.651	103.783
861.473	76.629
865.293	0.156
869.112	39.346
872.928	13.791
876.744	0.703
880.557	184.811
884.369	70.539
888.178	8.994
891.987	111.146
895.793	43.023
899.598	9.373
903.401	67.918
907.202	209.004
911.001	376.908
914.799	392.607
918.595	261.078
922.389	274.33
926.182	504.367
929.972	332.221
933.761	461.926
937.549	496.422
941.334	346.738
945.118	526.861
948.9	469.729
952.681	506.531
956.459	544.154
960.236	955.629
964.012	822.109
967.785	1017.38
971.557	870.727
975.327	1009.78
979.095	1129.5
982.862	1102.39
986.627	930.785
990.39	1077.87
994.152	1381.88
997.912	1475.39
1001.67	1205.82
1005.43	1407.52
1009.18	1719.14
1012.93	1586.84
1016.68	1711.2
1020.43	1751.11
1024.18	1812.37
1027.93	1501.13
1031.67	1879.23
1035.42	1699.64
1039.16	1859.39
1042.9	2330.59
1046.63	2724.19
1050.37	3206.29
1054.11	4037.52
1057.84	3959.64
1061.57	4178.07
1065.3	3765.03
1069.03	3171.11
1072.75	3005.72
1076.47	2826.94
1080.2	2758.42
1083.92	2603.72
1087.64	2610.25
1091.36	2526.33
1095.07	2416.44
1098.79	2498.24
1102.5	2733.44
1106.21	2868.79
1109.92	3289.03
1113.62	3409.32
1117.33	3675.28
1121.04	4076.56
1124.74	4404.67
1128.44	4927.62
1132.14	5850.63
1135.83	6359.48
1139.53	6368.47
1143.22	5242.85
1146.92	3403.17
1150.61	1843.16
1154.3	1029.55
1157.98	676.789
1161.67	430.783
1165.35	265.639
1169.04	57.922
1172.72	197.268
1176.4	35.117
1180.07	41.666
1183.75	9.465
1187.42	83.926
1191.1	145.699
1194.77	115.961
1198.44	50.998
1202.1	221.242
1205.77	93.232
1209.43	257.863
1213.1	150.738
1216.76	0.117
1220.42	164.596
1224.07	153.547
1227.73	252.061
1231.38	19.709
1235.04	29.469
1238.69	52.967
1242.34	207.248
1245.99	66.012
1249.63	183.305
1253.28	99.154
1256.92	44.432
1260.56	93.457
1264.2	46.246
1267.84	45.789
1271.48	192.688
1275.11	9.895
1278.74	178.006
1282.38	55.689
1286.01	3.041
1289.63	40.711
1293.26	16.043
1296.89	29.314
1300.51	113.076
1304.13	170.355
1307.75	85.225
1311.37	16.326
1314.99	83.211
1318.6	154.535
1322.22	225.445
1325.83	158.551
1329.44	203.254
1333.05	184.516
1336.66	99.469
1340.26	239.723
1343.87	230.711
1347.47	383.117
1351.07	317.08
1354.67	258.682
1358.27	127.613
1361.86	220.211
1365.46	405.707
1369.05	561.916
1372.64	151.365
1376.23	299.156
1379.82	416.414
1383.41	434.285
1386.99	459.279
1390.57	462.154
1394.16	223.529
1397.74	269.924
1401.32	561.496
1404.89	407.107
1408.47	413.539
1412.04	408.133
1415.61	242.48
1419.18	462.906
1422.75	303.615
1426.32	297.113
1429.89	405.365
1433.45	432.602
1437.01	375.16
1440.58	423.408
1444.13	568.035
1447.69	509.848
1451.25	495.148
1454.81	450.412
1458.36	301.479
1461.91	500.586
1465.46	413.275
1469.01	652.105
1472.56	540.717
1476.1	383.295
1479.64	408.227
1483.19	599.334
1486.73	369.072
1490.27	694.826
1493.81	204.094
1497.34	226.191
1500.88	432.307
1504.41	153.861
1507.94	307.834
1511.47	207.281
1515	251.465
1518.53	199.57
1522.05	0
