Measurement: Raman, 514 nm, ccw, Raman Data Processed
Mineral: Trilithionite
Rruff sample: R040101
Ideal chemistry: KLi_1.5_Al_1.5_(Si_3_Al)O_10_F_2_
Locality: Zambezi Region, Mozambique
Source: University of Arizona Mineral Museum
Description: Aggregate of purple hexagonal plates, polytype is 2M1
Measured chemistry: (K_0.84_Li_0.13_Na_0.02_)(Li_0.54_Al_0.44_Mn_0.02_)_3_(Si_0.82_Al_0.18_)_4_O_10_F_2.00_
Pin_id: M00337
Orientation: Laser parallel to (1 0 1). Fiducial mark perpendicular to laser is parallel to b [0 1 0]
Raman shift (cm-1)	intensity
134.39	0
138.55	44.375
142.709	90.639
146.865	155.062
151.019	4.139
155.171	223.673
159.322	847.611
163.47	2071.28
167.617	3870.46
171.761	6758.74
175.904	10778.5
180.044	13535.3
184.183	14237.2
188.319	13128.6
192.454	12618.9
196.586	11901.5
200.717	9538.15
204.846	7318.67
208.972	6435.85
213.097	5499.51
217.22	5057.74
221.341	4798.64
225.46	4840.74
229.577	5540.17
233.692	6833.14
237.805	8537.46
241.916	10760.4
246.025	12330.5
250.132	13683.4
254.237	17404.7
258.34	22756.5
262.442	24907.8
266.541	20597.5
270.639	12772.7
274.734	7333.27
278.828	4516.27
282.919	3082.67
287.009	2082.45
291.097	1643.63
295.183	1528.18
299.266	1451.9
303.348	1260.38
307.428	1038.21
311.507	628.133
315.583	479.018
319.657	217.663
323.729	146.727
327.8	55.009
331.868	137.091
335.935	167.614
339.999	99.199
344.062	31.61
348.123	42.132
352.182	25.596
356.239	261.932
360.294	438.271
364.347	644.019
368.398	760.152
372.448	1154.65
376.495	1527.51
380.54	1823.7
384.584	1974.22
388.626	2284.07
392.666	2818.27
396.704	3388.73
400.74	4181.18
404.774	4505.58
408.806	4326.06
412.836	3776.76
416.865	2774.69
420.891	1918.84
424.916	1269.21
428.939	829.779
432.959	690.556
436.978	655.529
440.996	838.696
445.011	712.05
449.024	791.587
453.036	451.3
457.045	323.186
461.053	436.259
465.059	572.67
469.063	718.442
473.065	949.541
477.065	953.948
481.063	690.653
485.06	407.591
489.054	30.75
493.047	186.747
497.038	167.935
501.027	255.857
505.014	189.18
508.999	138.248
512.982	30.595
516.964	326.245
520.944	479.371
524.921	637.932
528.897	835.88
532.871	1276.24
536.844	1458.89
540.814	1626.82
544.783	2235.02
548.749	2783.49
552.714	3718.11
556.677	4321.85
560.638	4621.71
564.597	4060.7
568.555	3199.8
572.511	2207.05
576.464	1394.4
580.416	836.861
584.366	531.413
588.315	1334.04
592.261	462.73
596.206	389.479
600.148	378.272
604.089	499.109
608.028	783.983
611.965	981.89
615.901	1057.82
619.834	1372.77
623.766	1535.74
627.696	2059.71
631.624	2069.68
635.551	2116.64
639.475	2178.57
643.398	2025.49
647.318	1992.11
651.237	1982.59
655.155	2251.99
659.07	2148.14
662.984	2314.97
666.895	2611.74
670.805	2735.67
674.713	3281.18
678.62	4167.98
682.524	5373.5
686.427	7043.84
690.328	9129.6
694.227	12818.6
698.124	17356.8
702.02	24692.4
705.913	32861.1
709.805	40175.5
713.695	33491.7
717.584	20484.9
721.47	11872.1
725.355	7149.27
729.238	5030.24
733.119	4036.4
736.998	3523.4
740.876	3893.61
744.752	4360.95
748.626	4778.81
752.498	4739.54
756.368	4556.89
760.237	3830.03
764.104	2973.96
767.969	2209.68
771.832	2085.18
775.693	1863.46
779.553	1746.52
783.411	1817.35
787.267	1428.96
791.122	1339.33
794.974	828.476
798.825	490.385
802.674	525.064
806.522	348.633
810.367	175.328
814.211	16.139
818.053	101.153
821.893	51.769
825.732	13.064
829.568	62.225
833.403	14.713
837.236	102.103
841.068	65.741
844.898	45.073
848.726	95.975
852.552	15.513
856.376	56.498
860.199	56.947
864.02	97.104
867.839	62.966
871.656	58.532
875.472	28.8
879.286	17.235
883.098	39.391
886.909	64.726
890.717	132.778
894.524	265.579
898.33	207.145
902.133	146.494
905.935	438.632
909.735	520.558
913.533	506.273
917.33	571.875
921.124	535.286
924.918	437.489
928.709	448.502
932.499	491.327
936.286	548.97
940.073	520.434
943.857	707.72
947.64	707.825
951.421	769.784
955.2	943.636
958.978	1225.37
962.753	1547.52
966.527	1738.04
970.3	1589.85
974.071	1724.65
977.84	1815.81
981.607	1825.92
985.372	2017.44
989.136	2171.26
992.898	2033.58
996.659	1941.35
1000.42	2168.26
1004.17	1911.72
1007.93	2057.85
1011.68	2335.61
1015.43	2375.98
1019.18	2320.63
1022.93	2388.94
1026.68	2373.54
1030.42	2157.82
1034.17	1883.21
1037.91	2044.15
1041.65	2378.08
1045.39	3007.18
1049.12	3565.24
1052.86	4274.49
1056.59	4805.1
1060.33	4941.46
1064.06	4868.63
1067.78	4307.3
1071.51	3841.17
1075.23	3682.02
1078.96	3486.78
1082.68	3344.36
1086.4	3199.49
1090.12	3060.03
1093.83	3080.3
1097.55	3055.91
1101.26	3147.98
1104.97	3453.55
1108.68	3488.72
1112.39	3674.49
1116.1	4023.92
1119.8	4417.55
1123.5	5040.07
1127.2	5395.14
1130.9	6033.71
1134.6	7354.23
1138.3	8130
1141.99	7995.07
1145.69	5531.97
1149.38	3304.09
1153.07	1690.43
1156.76	980.195
1160.44	613.637
1164.13	375.351
1167.81	313.076
1171.49	130.616
1175.17	37.126
1178.85	176.116
1182.52	129.217
1186.2	161.356
1189.87	37.895
1193.54	74.703
1197.21	13.627
1200.88	81.576
1204.55	164.877
1208.21	79.674
1211.88	40.085
1215.54	108.78
1219.2	111.447
1222.86	26.964
1226.51	36.273
1230.17	17.479
1233.82	51.254
1237.47	121.722
1241.12	38.925
1244.77	35.961
1248.42	19.638
1252.06	30.321
1255.71	24.115
1259.35	154.813
1262.99	121.322
1266.63	111.611
1270.26	33.874
1273.9	56.218
1277.53	60.178
1281.16	136.989
1284.8	29.701
1288.42	110.026
1292.05	51.009
1295.68	34.455
1299.3	33.3
1302.92	57.417
1306.55	32.768
1310.16	79.764
1313.78	84.344
1317.4	183.555
1321.01	37.884
1324.62	38.429
1328.24	113.621
1331.85	147.116
1335.45	90.635
1339.06	83.841
1342.66	208.442
1346.27	144.814
1349.87	213.398
1353.47	283.49
1357.07	333.966
1360.66	426.988
1364.26	366.515
1367.85	227.797
1371.44	240.54
1375.04	316.964
1378.62	240.971
1382.21	312.795
1385.8	198.19
1389.38	259.941
1392.96	361.344
1396.54	422.527
1400.12	248.67
1403.7	324.656
1407.28	224.758
1410.85	315.347
1414.42	318.413
1417.99	249.472
1421.56	337.035
1425.13	222.437
1428.7	278.156
1432.26	145.45
1435.83	310.977
1439.39	440.214
1442.95	352.431
1446.51	312.814
1450.06	329.177
1453.62	372.358
1457.17	417.535
1460.73	374.932
1464.28	243.589
1467.83	216.111
1471.37	368.93
1474.92	261.487
1478.46	155.86
1482.01	159.568
1485.55	254.377
1489.09	182.316
1492.63	122.955
1496.16	332.377
1499.7	156.654
1503.23	10.172
1506.76	194.031
1510.29	56.705
1513.82	149.055
1517.35	85.076
1520.88	4.711
1524.4	0
