Measurement: Raman, 514 nm, ccw, Raman Data Processed
Mineral: Trilithionite
Rruff sample: R040105
Ideal chemistry: KLi_1.5_Al_1.5_(Si_3_Al)O_10_F_2_
Locality: Brown Derby mine, Ohio City, Gunnison County, Colorado, USA
Source: University of Arizona Mineral Museum
Description: Purple hexagonal tablet
Measured chemistry: (K_0.82_Li_0.14_Na_0.04_)(Li_0.53_Al_0.42_Mn_0.05_)_3_(Si_0.84_Al_0.17_)_4_O_10_((OH)_0.59_F_0.41_)_2_
Pin_id: L00110
Orientation: Laser parallel to a* (1 0 0). Fiducial mark perpendicular to laser is parallel to b [0 1 0]
Raman shift (cm-1)	intensity
139.043	0
143.956	194.473
148.867	80.457
153.775	92.2246
158.681	58.3145
163.585	509.144
168.486	1018.77
173.385	1705.87
178.282	2058.68
183.176	2302.03
188.067	1919.19
192.956	1676.19
197.843	1343.89
202.727	1042.42
207.609	745.967
212.489	750.828
217.366	902.033
222.24	840.82
227.112	1025.7
231.982	1302.94
236.849	1614.83
241.714	2033.41
246.577	2155.01
251.437	2623.62
256.294	2753.58
261.149	3178.25
266.002	2648.05
270.852	1820
275.7	1345.83
280.545	848.533
285.388	402.562
290.229	412.799
295.067	404.953
299.902	313.185
304.735	336.467
309.566	294.361
314.394	263.603
319.22	152.158
324.043	162.916
328.864	17.8203
333.682	152.916
338.498	187.059
343.311	104.644
348.122	58.541
352.931	0.082031
357.737	38.8125
362.54	149.648
367.341	76.0879
372.14	152.629
376.936	396.873
381.73	276.748
386.521	393.455
391.31	421.148
396.096	434.879
400.88	563.545
405.661	416.506
410.44	388.316
415.216	429.969
419.99	292.465
424.761	49.1992
429.53	40.6289
434.297	204.184
439.061	274.91
443.822	121.756
448.581	162.744
453.337	357.15
458.091	162.996
462.843	202.815
467.592	304.385
472.338	389.592
477.082	398.514
481.824	324.33
486.563	115.152
491.3	106.648
496.034	230.404
500.765	145.307
505.494	57.3555
510.221	40.7246
514.945	63.334
519.666	35.3945
524.385	82.4981
529.102	76.6973
533.816	334.69
538.527	140.449
543.236	425.164
547.943	285.69
552.647	617.102
557.348	710.379
562.047	700.676
566.744	741.031
571.438	475.182
576.129	532.08
580.818	126.098
585.504	161.75
590.188	269.455
594.87	56.2305
599.549	162.81
604.225	270.668
608.899	126.272
613.57	187.586
618.239	328.16
622.905	10.7969
627.569	80.2871
632.23	173.133
636.889	35.2617
641.545	201.387
646.198	217.799
650.849	224.004
655.498	236.117
660.144	339.682
664.787	278.838
669.428	445.211
674.067	546.037
678.703	640.775
683.336	1268.75
687.967	1703.61
692.595	2491.36
697.221	4181.44
701.844	6192.15
706.465	8709.98
711.083	8828.1
715.698	5693.56
720.311	3095.44
724.922	1827.08
729.53	1277.48
734.135	956.201
738.738	630.635
743.338	495.996
747.936	577.689
752.531	583.41
757.124	582.42
761.714	593.611
766.302	130.338
770.887	530.856
775.469	139.863
780.049	394.496
784.626	390.652
789.201	368.906
793.773	502.234
798.343	9.4375
802.91	124.781
807.475	21.9727
812.037	254.941
816.596	71.2617
821.153	181.523
825.707	11.5039
830.259	56.7148
834.808	7.48047
839.355	92.8789
843.899	162.461
848.441	276.277
852.98	236.398
857.516	77.1875
862.05	36.5469
866.581	241.519
871.11	182.172
875.636	161.356
880.159	304.996
884.68	162.191
889.199	320.973
893.714	68.6055
898.228	258.227
902.738	171.082
907.246	143.969
911.752	80.0312
916.255	202.203
920.755	137.848
925.253	170.812
929.748	318.965
934.241	263.019
938.731	193.856
943.218	61.4062
947.703	269.094
952.186	124.137
956.665	146.633
961.142	119.785
965.617	224.539
970.089	91.9805
974.558	334.731
979.025	189.84
983.489	337.441
987.951	148.781
992.41	394.957
996.866	277.496
1001.32	150.285
1005.77	346.246
1010.22	50.8906
1014.67	599.414
1019.11	404.625
1023.55	437.434
1027.99	388.648
1032.42	330.062
1036.86	263.023
1041.29	323.051
1045.72	478.227
1050.14	179.902
1054.56	417.863
1058.98	586.703
1063.4	629.82
1067.82	622
1072.23	929.066
1076.64	440.731
1081.05	788.648
1085.45	1001.89
1089.85	764.703
1094.25	978.289
1098.65	818.098
1103.04	1014.89
1107.43	1120.92
1111.82	1237.08
1116.21	942.019
1120.59	1231.81
1124.97	1300.19
1129.35	1305.75
1133.73	1368.42
1138.1	948.969
1142.47	417.289
1146.84	211.652
1151.21	117.277
1155.57	176.356
1159.93	342.961
1164.29	159.707
1168.64	371.332
1172.99	279.898
1177.34	86.1602
1181.69	100.277
1186.04	238.078
1190.38	111.793
1194.72	46.4766
1199.05	163.008
1203.39	82.2539
1207.72	32.6211
1212.05	408.977
1216.37	15.6914
1220.7	101.781
1225.02	200.695
1229.34	327.859
1233.65	239.129
1237.97	25.2461
1242.28	176.918
1246.59	620.953
1250.89	173.902
1255.19	86.7539
1259.49	165.582
1263.79	17.7227
1268.09	285.269
1272.38	187.367
1276.67	166.203
1280.95	306.547
1285.24	258.559
1289.52	28.625
1293.8	96.2422
1298.08	382.121
1302.35	256.773
1306.62	153.461
1310.89	93.8672
1315.15	203.027
1319.42	134.574
1323.68	426.508
1327.94	6.69531
1332.19	172.672
1336.44	485.086
1340.69	153.547
1344.94	305.781
1349.19	304.047
1353.43	322.269
1357.67	182.766
1361.9	260.082
1366.14	401.106
1370.37	447.426
1374.6	328.051
1378.83	299.809
1383.05	266.906
1387.27	194.484
1391.49	386.172
1395.7	131.531
1399.92	322.027
1404.13	119.266
1408.34	172.731
1412.54	399.492
1416.74	251.293
1420.94	488.731
1425.14	330.43
1429.34	189.934
1433.53	250.934
1437.72	421.402
1441.9	349.481
1446.09	588.746
1450.27	271.004
1454.45	587.086
1458.63	338.91
1462.8	341.273
1466.97	318.059
1471.14	306.312
1475.31	127.926
1479.47	271.988
1483.63	38.2578
1487.79	301.527
1491.94	261.211
1496.09	27.9453
1500.24	146.789
1504.39	334.894
1508.54	117.156
1512.68	245.684
1516.82	189.473
1520.95	88.918
1525.09	364.504
1529.22	320.992
1533.35	312.898
1537.47	177.734
1541.6	0.058594
1545.72	363.106
1549.83	245.367
1553.95	8.44922
1558.06	405.481
1562.17	38.6875
1566.28	381.844
1570.38	1.70703
