Measurement: Raman, 514 nm, ccw, Raman Data Processed
Mineral: Trilithionite
Rruff sample: R040105
Ideal chemistry: KLi_1.5_Al_1.5_(Si_3_Al)O_10_F_2_
Locality: Brown Derby mine, Ohio City, Gunnison County, Colorado, USA
Source: University of Arizona Mineral Museum
Description: Purple hexagonal tablet
Measured chemistry: (K_0.82_Li_0.14_Na_0.04_)(Li_0.53_Al_0.42_Mn_0.05_)_3_(Si_0.84_Al_0.17_)_4_O_10_((OH)_0.59_F_0.41_)_2_
Pin_id: L01598
Orientation: Laser parallel to c* (0 0 1). Fiducial mark perpendicular to laser is parallel to -a [-1 0 0]
Raman shift (cm-1)	intensity
151.321	0
156.229	121.647
161.134	217.617
166.036	678.068
170.936	1501.71
175.834	2230.91
180.729	2614.29
185.622	2173.02
190.512	1330.55
195.4	1259.11
200.286	967.144
205.169	785.111
210.049	206.301
214.928	480.016
219.803	361.131
224.677	438.066
229.548	708.766
234.416	1551.38
239.282	2171.75
244.146	3190.83
249.007	4018.61
253.866	5341.6
258.722	6829.22
263.576	6960.88
268.427	4989.73
273.276	3276.74
278.123	2336.53
282.967	1759.97
287.809	1207.12
292.648	1012.09
297.485	948.596
302.319	1067.07
307.151	709.887
311.98	536.662
316.807	332.914
321.631	287.807
326.454	188.551
331.273	110.035
336.09	231.473
340.905	66.0137
345.717	3.86328
350.527	78.2363
355.334	6.37305
360.139	181.893
364.941	359.301
369.741	573.928
374.538	697.059
379.333	1056.11
384.126	1361.88
388.916	1656.17
393.703	2337.72
398.488	2870.65
403.271	3296.57
408.051	3346.44
412.828	2722.93
417.603	2224.05
422.376	1698.86
427.146	1695.36
431.914	2036.48
436.679	2255.56
441.442	2393.29
446.202	2551.5
450.96	2507.14
455.715	2227.68
460.467	1856.52
465.218	1943.9
469.965	1923.58
474.711	1823.14
479.454	1451.5
484.194	871.676
488.932	546.578
493.667	104.367
498.4	121.166
503.13	98.4336
507.858	61.0898
512.583	86.0371
517.306	124.481
522.026	418.344
526.744	579.193
531.459	994.316
536.172	1032.36
540.882	1360.31
545.59	1863.37
550.295	2306.48
554.998	2959.35
559.698	3489.64
564.396	3650.16
569.091	2819.93
573.784	2020.94
578.474	1331.21
583.162	765.731
587.847	597.514
592.529	561.57
597.209	546.912
601.887	716.572
606.562	702.607
611.235	985.064
615.905	974.229
620.572	734.527
625.237	912.135
629.9	580.178
634.56	92.3906
639.217	132.281
643.872	144.494
648.524	265.639
653.174	320.619
657.821	256.113
662.466	268.951
667.108	659.676
671.748	994.518
676.385	1574.87
681.02	2493.12
685.652	3875.68
690.281	6209.67
694.908	9925.22
699.533	17062
704.155	26345.5
708.774	31462.1
713.391	22164.6
718.005	12035.2
722.617	6216.75
727.226	3782.31
731.833	2350.86
736.437	1886.38
741.039	1704.86
745.638	1690.29
750.234	1815.66
754.828	1717.95
759.419	1292.15
764.008	950.225
768.595	716.766
773.178	599.894
777.759	721.469
782.338	725.979
786.914	721.291
791.488	802.457
796.059	286.391
800.627	78.0664
805.193	34.7793
809.756	239.268
814.317	48.0957
818.875	49.6484
823.431	65.3574
827.984	77.8457
832.534	49.416
837.082	257.203
841.627	391.711
846.17	510.309
850.71	476.264
855.248	657.1
859.783	843.512
864.316	839.654
868.846	830.527
873.373	817.135
877.898	449.478
882.42	711.564
886.94	490.393
891.457	649.012
895.971	776.398
900.483	708.539
904.993	742.439
909.5	984.115
914.004	864.588
918.505	758.078
923.004	879.543
927.501	965.965
931.995	960.256
936.486	810.014
940.975	806.529
945.461	659.484
949.945	600.137
954.426	717.176
958.904	378.391
963.38	445.758
967.853	74.0527
972.324	44.1641
976.792	245.365
981.258	83.6523
985.72	68.043
990.181	300.531
994.639	280.133
999.094	720.856
1003.55	1368.7
1008	636.686
1012.44	432.805
1016.89	636.066
1021.33	1002.48
1025.77	799.109
1030.21	682.824
1034.64	616.699
1039.07	498.742
1043.5	451.004
1047.93	629.188
1052.35	1042.16
1056.78	1213.84
1061.19	1671.29
1065.61	2263.99
1070.02	2325.75
1074.43	2810.07
1078.84	3205.94
1083.25	3332.86
1087.65	3200.33
1092.05	2939.91
1096.45	2605.88
1100.85	2568.18
1105.24	2421.6
1109.63	2264.11
1114.02	2255.39
1118.4	2109.97
1122.78	2027.55
1127.16	1761.34
1131.54	1158.2
1135.92	1053.27
1140.29	577.125
1144.66	376.18
1149.02	29.293
1153.39	57.5391
1157.75	146.565
1162.11	71.0996
1166.46	111.918
1170.82	8.16211
1175.17	32.4082
1179.52	177.365
1183.86	158.59
1188.21	46.7832
1192.55	39.0273
1196.89	91.0059
1201.22	30.1719
1205.55	197.992
1209.88	3.25781
1214.21	118.197
1218.54	44.6738
1222.86	145.08
1227.18	52.3105
1231.5	199.338
1235.81	395.297
1240.12	382.191
1244.43	268.049
1248.74	442.873
1253.04	387.641
1257.34	694.414
1261.64	561.246
1265.94	844.119
1270.23	789.963
1274.52	894.812
1278.81	945.635
1283.1	953.367
1287.38	1273.15
1291.66	1619.9
1295.94	2163.6
1300.21	2393.24
1304.48	2521.78
1308.75	2507.08
1313.02	2080.17
1317.29	1662.97
1321.55	1207.69
1325.81	1046.38
1330.06	780.391
1334.32	444.44
1338.57	504.863
1342.82	352.603
1347.06	343.766
1351.31	394.619
1355.55	214.107
1359.79	352.877
1364.02	216.758
1368.26	249.754
1372.49	469.812
1376.71	337.369
1380.94	75.9805
1385.16	173.33
1389.38	160.615
1393.6	224.574
1397.81	222.486
1402.02	221.623
1406.23	497.383
1410.44	621.672
1414.64	729.83
1418.85	967.787
1423.04	1143.86
1427.24	1380.26
1431.43	2514.31
1435.62	4015.32
1439.81	4933.21
1444	4907.26
1448.18	4211.17
1452.36	4118.48
1456.54	3882.97
1460.71	3173.36
1464.89	2560.82
1469.06	1890.95
1473.22	1218.4
1477.39	761.16
1481.55	478.92
1485.71	658.631
1489.86	462.467
1494.02	191.519
1498.17	110.912
1502.32	101.82
1506.46	71.5566
1510.61	114.096
1514.75	68.6504
1518.88	232.627
1523.02	36.3848
1527.15	117.756
1531.28	333.037
1535.41	171.981
1539.53	77.2617
1543.66	190.098
1547.78	71.8066
1551.89	351.037
1556.01	526.484
1560.12	312.685
1564.23	211.336
1568.33	276.812
