Measurement: Raman, 514 nm, ccw, Raman Data Processed
Mineral: Trilithionite
Rruff sample: R040101
Ideal chemistry: KLi_1.5_Al_1.5_(Si_3_Al)O_10_F_2_
Locality: Zambezi Region, Mozambique
Source: University of Arizona Mineral Museum
Description: Aggregate of purple hexagonal plates, polytype is 2M1
Measured chemistry: (K_0.84_Li_0.13_Na_0.02_)(Li_0.54_Al_0.44_Mn_0.02_)_3_(Si_0.82_Al_0.18_)_4_O_10_F_2.00_
Pin_id: M00449
Orientation: Laser parallel to -a* (-1 0 0). Fiducial mark perpendicular to laser is parallel to b [0 1 0]
Raman shift (cm-1)	intensity
127.452	0
131.615	56.679
135.777	34.168
139.937	24.382
144.094	108.294
148.25	172.753
152.403	492.073
156.555	1157.77
160.705	2225.15
164.853	3983.76
168.998	7003.25
173.142	11378
177.284	17278.7
181.424	19354.8
185.562	17768.8
189.698	16991.2
193.831	16321.3
197.963	13565.1
202.093	9994.76
206.221	8091.24
210.347	7746.52
214.472	7713.73
218.594	7404.52
222.714	7393.65
226.832	9296.37
230.948	10038.5
235.063	11141.1
239.175	13284.7
243.286	15614.2
247.394	17020.4
251.501	19333.5
255.605	25046.4
259.708	31381.1
263.808	29285.6
267.907	19227.7
272.004	11097.5
276.099	7135.85
280.192	4945.85
284.283	3873.48
288.372	3624.71
292.459	2686.35
296.544	2612
300.627	2213.87
304.709	1779.67
308.788	1289.85
312.865	881.007
316.941	601.692
321.015	423.687
325.086	222.798
329.156	31.313
333.224	68.453
337.29	75.36
341.354	134.533
345.416	169.668
349.476	133.27
353.534	59.386
357.591	71.88
361.645	191.044
365.698	398.887
369.748	482.144
373.797	725.81
377.844	973.888
381.889	1062.39
385.932	1371.33
389.973	1812.7
394.012	2256.41
398.049	2745.97
402.084	3366.01
406.118	3469.94
410.15	2819.28
414.179	2338.05
418.207	1569.24
422.233	1064.85
426.257	666.876
430.279	632.311
434.299	349.146
438.318	424.384
442.334	309.015
446.349	290.037
450.361	339.445
454.372	256.251
458.381	233.584
462.388	312.469
466.394	342.944
470.397	467.905
474.398	669.324
478.398	695.181
482.396	358.457
486.391	204.139
490.385	39.3
494.377	67.219
498.368	196.064
502.356	116.687
506.342	114.471
510.327	113.04
514.31	131.701
518.291	160.692
522.27	418.705
526.247	557.306
530.222	914.556
534.196	856.271
538.167	1106.56
542.137	1407.39
546.105	1815.68
550.071	2541.45
554.035	3496.7
557.998	3998.38
561.958	3983.47
565.917	3093
569.874	2087.96
573.829	1444.31
577.782	998.01
581.733	467.085
585.683	477.6
589.63	323.482
593.576	346.701
597.52	379.236
601.462	357.084
605.402	442.225
609.341	587.643
613.277	686.332
617.212	928.285
621.145	1070.49
625.076	1359.93
629.006	1311.6
632.933	1726.5
636.859	1606.6
640.783	1619.91
644.705	1676.42
648.625	1898.96
652.543	1938.3
656.46	2223.21
660.375	2466.5
664.288	2528.77
668.199	2750.75
672.108	3284.8
676.016	3902.34
679.921	4704.8
683.825	5812.17
687.727	7667.29
691.628	10442.6
695.526	13719.4
699.423	19774.1
703.318	27959.4
707.211	37074.2
711.102	37570.8
714.992	25877.6
718.879	14006.9
722.765	8160.3
726.649	5240.69
730.532	3758.53
734.412	3465.54
738.291	3459.9
742.168	3920.72
746.043	4335.14
749.916	4404.61
753.788	4354.87
757.658	3744.06
761.526	2831.07
765.392	2173.75
769.257	1768.44
773.119	1502.88
776.98	1263.01
780.839	1493.98
784.697	1261.76
788.552	1089.35
792.406	823.74
796.258	478.932
800.108	407.915
803.957	311.687
807.804	53.332
811.649	19.116
815.492	151.552
819.333	88.417
823.173	69.713
827.011	39.66
830.847	71.347
834.681	139.771
838.514	52.015
842.345	24.935
846.174	95.369
850.001	20.433
853.827	11.312
857.651	6.418
861.473	135.358
865.293	27.753
869.112	77.433
872.928	20.794
876.744	41.483
880.557	215.34
884.369	107.83
888.178	105.99
891.987	69.278
895.793	19.926
899.598	84.774
903.401	102.293
907.202	35.502
911.001	197.394
914.799	246.021
918.595	230.383
922.389	189.467
926.182	211.677
929.972	274.8
933.761	354.062
937.549	472.085
941.334	330.848
945.118	429.35
948.9	463.596
952.681	443.625
956.459	618.024
960.236	670.106
964.012	677.73
967.785	742.986
971.557	684.122
975.327	900.501
979.095	936.718
982.862	1009.01
986.627	782.06
990.39	890.957
994.152	1148.32
997.912	1142.32
1001.67	1021.07
1005.43	1253.4
1009.18	1435.92
1012.93	1476.79
1016.68	1576.41
1020.43	1650.39
1024.18	1836.33
1027.93	1738.54
1031.67	1904.2
1035.42	2060.87
1039.16	2379.56
1042.9	3040.99
1046.63	3709.17
1050.37	4405.23
1054.11	5460.85
1057.84	5879.18
1061.57	5790.9
1065.3	5295.46
1069.03	4549.67
1072.75	4067.25
1076.47	3769.23
1080.2	3427.62
1083.92	3378.59
1087.64	3054.23
1091.36	3134.72
1095.07	2966.05
1098.79	3011.02
1102.5	3277.2
1106.21	3407.83
1109.92	3758.98
1113.62	4020.76
1117.33	4434.72
1121.04	4911.91
1124.74	5594.47
1128.44	6338.68
1132.14	7625.74
1135.83	8764.6
1139.53	9014.24
1143.22	7570.39
1146.92	4957.95
1150.61	2735.78
1154.3	1604.6
1157.98	1017.28
1161.67	715.467
1165.35	720.545
1169.04	751.469
1172.72	798.735
1176.4	822.34
1180.07	245.038
1183.75	117.038
1187.42	95.996
1191.1	88.349
1194.77	144.689
1198.44	54.45
1202.1	85.364
1205.77	24.016
1209.43	165.415
1213.1	102.473
1216.76	108.359
1220.42	144.123
1224.07	103.004
1227.73	171.413
1231.38	165.813
1235.04	7.223
1238.69	62.648
1242.34	96.266
1245.99	69.449
1249.63	127.571
1253.28	79.716
1256.92	23.466
1260.56	136.355
1264.2	24.138
1267.84	16.981
1271.48	121.672
1275.11	40.059
1278.74	211.731
1282.38	49.19
1286.01	50.811
1289.63	12.169
1293.26	117.179
1296.89	69.216
1300.51	78.903
1304.13	84.247
1307.75	42.281
1311.37	14.991
1314.99	92.412
1318.6	1.477
1322.22	256.208
1325.83	105.655
1329.44	96.813
1333.05	212.579
1336.66	182.892
1340.26	217.856
1343.87	233.296
1347.47	170.456
1351.07	168.809
1354.67	243.419
1358.27	208.569
1361.86	264.391
1365.46	313.948
1369.05	412.417
1372.64	199.636
1376.23	364.318
1379.82	191.968
1383.41	281.936
1386.99	370.611
1390.57	326.833
1394.16	252.489
1397.74	210.917
1401.32	417.434
1404.89	331.534
1408.47	222.541
1412.04	395.164
1415.61	210.75
1419.18	297.109
1422.75	304.706
1426.32	307.697
1429.89	136.93
1433.45	291.769
1437.01	433.423
1440.58	402.409
1444.13	313.342
1447.69	251.83
1451.25	439.005
1454.81	287.943
1458.36	237.595
1461.91	297.614
1465.46	271.225
1469.01	386.896
1472.56	388.4
1476.1	348.11
1479.64	251.124
1483.19	404.388
1486.73	301.285
1490.27	520.246
1493.81	152.645
1497.34	120.625
1500.88	285.32
1504.41	59.398
1507.94	243.436
1511.47	297.631
1515	168.854
1518.53	252.244
