Measurement: Raman, 514 nm, ccw, Raman Data Processed
Mineral: Trilithionite
Rruff sample: R040101
Ideal chemistry: KLi_1.5_Al_1.5_(Si_3_Al)O_10_F_2_
Locality: Zambezi Region, Mozambique
Source: University of Arizona Mineral Museum
Description: Aggregate of purple hexagonal plates, polytype is 2M1
Measured chemistry: (K_0.84_Li_0.13_Na_0.02_)(Li_0.54_Al_0.44_Mn_0.02_)_3_(Si_0.82_Al_0.18_)_4_O_10_F_2.00_
Pin_id: M00337
Orientation: Laser parallel to (1 0 1). Fiducial mark perpendicular to laser is parallel to b [0 1 0]
Raman shift (cm-1)	intensity
130.228	0
134.39	71.261
138.55	137.053
142.709	38.22
146.865	66.566
151.019	192.633
155.171	607.832
159.322	1365.61
163.47	2835.76
167.617	4935.08
171.761	8573.48
175.904	13443.5
180.044	17320.9
184.183	18295.7
188.319	17339.4
192.454	16896.5
196.586	15760.1
200.717	12341.2
204.846	9148.83
208.972	7972.1
213.097	7321.98
217.22	6925.74
221.341	6661.12
225.46	6792.62
229.577	7737.59
233.692	9361.88
237.805	11523.5
241.916	14322.8
246.025	16133.6
250.132	17948.2
254.237	22760.4
258.34	29686.2
262.442	31787.6
266.541	25593.7
270.639	15896.3
274.734	9499.33
278.828	6112.85
282.919	4281.83
287.009	3156.29
291.097	2591.22
295.183	2397.43
299.266	2090.19
303.348	1834.98
307.428	1435.44
311.507	1052.01
315.583	683.5
319.657	444.347
323.729	302.346
327.8	132.323
331.868	26.147
335.935	141.176
339.999	143.383
344.062	152.672
348.123	192.021
352.182	113.686
356.239	77.046
360.294	113.062
364.347	339.409
368.398	554.088
372.448	707.095
376.495	1064.43
380.54	1411.09
384.584	1737.09
388.626	1939.44
392.666	2666.14
396.704	3279.08
400.74	3973.69
404.774	4392.59
408.806	4077.46
412.836	3582.67
416.865	2648.22
420.891	1809.1
424.916	1074.31
428.939	744.839
432.959	489.69
436.978	360.857
440.996	423.337
445.011	331.125
449.024	366.217
453.036	249.611
457.045	235.314
461.053	336.429
465.059	485.985
469.063	625.977
473.065	886.406
477.065	772.199
481.063	753.335
485.06	307.798
489.054	135.574
493.047	58.348
497.038	81.433
501.027	129.938
505.014	98.437
508.999	182.365
512.982	5.117
516.964	215.261
520.944	444.699
524.921	640.688
528.897	714.224
532.871	1093.27
536.844	1220.78
540.814	1496.75
544.783	1926.16
548.749	2669.94
552.714	3588.05
556.677	4329.49
560.638	4645.25
564.597	3938.33
568.555	3089.72
572.511	2093.41
576.464	1229.4
580.416	762.72
584.366	495.337
588.315	315.217
592.261	369.358
596.206	231.749
600.148	320.384
604.089	441.249
608.028	627.342
611.965	831.582
615.901	1030.18
619.834	1403.9
623.766	1638.83
627.696	1913.94
631.624	2056.22
635.551	2187.68
639.475	2438.81
643.398	2147.82
647.318	2284.18
651.237	2168.47
655.155	2334.64
659.07	2287.83
662.984	2560.87
666.895	2813.68
670.805	3065.33
674.713	3652.05
678.62	4575.79
682.524	5683.7
686.427	7411.7
690.328	9650.17
694.227	13296.1
698.124	18262.4
702.02	25343.6
705.913	33856.5
709.805	42006.9
713.695	34869.2
717.584	21111.3
721.47	11979.7
725.355	7181.26
729.238	5159.38
733.119	4109.14
736.998	3752.99
740.876	4018.45
744.752	4589.39
748.626	4995.86
752.498	4962.69
756.368	4563.92
760.237	4000.11
764.104	2988.18
767.969	2246.92
771.832	1913.47
775.693	1786.8
779.553	1680.01
783.411	1667.03
787.267	1469.89
791.122	1195.58
794.974	869.105
798.825	550.455
802.674	408.627
806.522	277.638
810.367	175.681
814.211	48.118
818.053	0.053
821.893	21.381
825.732	43.243
829.568	164.886
833.403	8.53
837.236	127.716
841.068	1.257
844.898	63.379
848.726	75.647
852.552	26.514
856.376	36.895
860.199	5.296
864.02	82.131
867.839	33.563
871.656	59.646
875.472	69.404
879.286	28.845
883.098	52.984
886.909	23.779
890.717	136.191
894.524	162.299
898.33	73.137
902.133	162.69
905.935	161.975
909.735	186.998
913.533	121.77
917.33	250.295
921.124	149.578
924.918	170.616
928.709	161.443
932.499	239.12
936.286	270.583
940.073	304.84
943.857	389.869
947.64	410.736
951.421	528.444
955.2	483.966
958.978	727.27
962.753	874.359
966.527	1011.53
970.3	1007.11
974.071	1109.01
977.84	1167.49
981.607	1208.44
985.372	1346.93
989.136	1388.88
992.898	1310.33
996.659	1391.1
1000.42	1449.63
1004.17	1455.68
1007.93	1675.96
1011.68	1786.7
1015.43	1837.66
1019.18	1899.74
1022.93	2030.8
1026.68	2095.34
1030.42	1964.97
1034.17	2069.83
1037.91	2190.17
1041.65	2572.74
1045.39	3245.71
1049.12	4137.48
1052.86	5059.87
1056.59	5690.56
1060.33	5857.32
1064.06	5571.37
1067.78	4748.13
1071.51	4342.36
1075.23	3869.79
1078.96	3584.99
1082.68	3364.89
1086.4	3189.07
1090.12	2983.92
1093.83	2941.41
1097.55	3092.26
1101.26	3075.52
1104.97	3316.53
1108.68	3452.64
1112.39	3719.75
1116.1	3958.37
1119.8	4392.11
1123.5	5404.23
1127.2	6390.96
1130.9	8098.48
1134.6	8774.84
1138.3	9036.43
1141.99	8452.6
1145.69	6454.64
1149.38	3830.01
1153.07	2151.61
1156.76	1187.17
1160.44	810.177
1164.13	518.06
1167.81	454.968
1171.49	233.985
1175.17	199.377
1178.85	142.311
1182.52	127.99
1186.2	120.372
1189.87	70.074
1193.54	96.213
1197.21	49.218
1200.88	61.757
1204.55	53.331
1208.21	69.653
1211.88	48.862
1215.54	48.964
1219.2	2.97
1222.86	26.135
1226.51	23.663
1230.17	41.858
1233.82	28.529
1237.47	126.668
1241.12	49.274
1244.77	12.502
1248.42	14.122
1252.06	26.331
1255.71	15.1
1259.35	39.129
1262.99	80.47
1266.63	63.218
1270.26	33.881
1273.9	2.649
1277.53	70.442
1281.16	27.693
1284.8	61.748
1288.42	31.875
1292.05	28.179
1295.68	23.537
1299.3	62.143
1302.92	16.391
1306.55	44.512
1310.16	105.392
1313.78	106.066
1317.4	20.466
1321.01	16.678
1324.62	46.589
1328.24	87.296
1331.85	23.768
1335.45	87.011
1339.06	80.824
1342.66	132.999
1346.27	123.776
1349.87	142.357
1353.47	196.629
1357.07	141.013
1360.66	175.112
1364.26	202.812
1367.85	148.532
1371.44	152.908
1375.04	203.476
1378.62	251.173
1382.21	160.688
1385.8	182.529
1389.38	122.543
1392.96	241.125
1396.54	227.415
1400.12	192.541
1403.7	135.358
1407.28	193.562
1410.85	239.693
1414.42	227.435
1417.99	208.729
1421.56	181.737
1425.13	88.063
1428.7	89.456
1432.26	141.371
1435.83	157.367
1439.39	297.484
1442.95	215.568
1446.51	192.279
1450.06	160.67
1453.62	276.999
1457.17	274.173
1460.73	169.896
1464.28	132.066
1467.83	111.591
1471.37	88.144
1474.92	95.456
1478.46	159.034
1482.01	98.168
1485.55	201.433
1489.09	131.96
1492.63	133.921
1496.16	124.636
1499.7	31.437
1503.23	96.411
1506.76	59.672
1510.29	101.824
1513.82	138.268
1517.35	8.983
1520.88	96.566
1524.4	0
