Measurement: Raman, 514 nm, ccw, Raman Data Processed
Mineral: Trilithionite
Rruff sample: R040105
Ideal chemistry: KLi_1.5_Al_1.5_(Si_3_Al)O_10_F_2_
Locality: Brown Derby mine, Ohio City, Gunnison County, Colorado, USA
Source: University of Arizona Mineral Museum
Description: Purple hexagonal tablet
Measured chemistry: (K_0.82_Li_0.14_Na_0.04_)(Li_0.53_Al_0.42_Mn_0.05_)_3_(Si_0.84_Al_0.17_)_4_O_10_((OH)_0.59_F_0.41_)_2_
Pin_id: L00110
Orientation: Laser parallel to a* (1 0 0). Fiducial mark perpendicular to laser is parallel to b [0 1 0]
Raman shift (cm-1)	intensity
139.043	0
143.956	412.887
148.867	17.2812
153.775	286.838
158.681	274.486
163.585	1061.4
168.486	2339.48
173.385	4364.31
178.282	6090.63
183.176	6388.46
188.067	5111.42
192.956	4098.95
197.843	3164.57
202.727	2689.43
207.609	2512.47
212.489	2559.09
217.366	2776.68
222.24	2935.15
227.112	3409.81
231.982	4020.73
236.849	4752.23
241.714	5407.21
246.577	5885.37
251.437	6125.72
256.294	6509.19
261.149	6490.65
266.002	5386.95
270.852	3697.13
275.7	2420.13
280.545	1722.96
285.388	1272.63
290.229	971.902
295.067	873.746
299.902	774.004
304.735	633.949
309.566	504.232
314.394	489.981
319.22	306.637
324.043	211.258
328.864	24.1562
333.682	34.7012
338.498	52.5156
343.311	52.3145
348.122	25.0215
352.931	70.5254
357.737	50.0527
362.54	104.375
367.341	100.158
372.14	229.279
376.936	259.947
381.73	317.201
386.521	505.578
391.31	245.617
396.096	707.84
400.88	467.477
405.661	713
410.44	653.424
415.216	255.742
419.99	149.176
424.761	77.125
429.53	179.853
434.297	162.279
439.061	161.731
443.822	81.168
448.581	164.5
453.337	233.725
458.091	323.832
462.843	48.5996
467.592	162.01
472.338	466.035
477.082	376.316
481.824	190.225
486.563	143.08
491.3	164.072
496.034	63
500.765	108.371
505.494	17.8438
510.221	95.1328
514.945	12
519.666	131.9
524.385	175.941
529.102	214.002
533.816	262.109
538.527	174.35
543.236	97.8047
547.943	341.391
552.647	686.383
557.348	836.746
562.047	1358.29
566.744	1246.82
571.438	795.91
576.129	619.602
580.818	178.809
585.504	158.951
590.188	113.836
594.87	159.113
599.549	86.5469
604.225	326.248
608.899	319.83
613.57	354.17
618.239	360.44
622.905	173.768
627.569	155.443
632.23	219.164
636.889	180.049
641.545	202.897
646.198	116.496
650.849	424.971
655.498	539.744
660.144	688.875
664.787	804.938
669.428	771.504
674.067	1120.23
678.703	1285.82
683.336	1690.05
687.967	2382.89
692.595	3866.55
697.221	5852.94
701.844	9080.39
706.465	12633.7
711.083	12901.7
715.698	8198.17
720.311	4178.43
724.922	2489.32
729.53	1485.89
734.135	1211.25
738.738	776.027
743.338	710.598
747.936	823.766
752.531	806.805
757.124	701.324
761.714	570.109
766.302	548.766
770.887	187.742
775.469	207.535
780.049	514.352
784.626	300.953
789.201	340.328
793.773	322.031
798.343	58.8672
802.91	120.449
807.475	199.586
812.037	51.2695
816.596	158.117
821.153	95.8789
825.707	138.027
830.259	294.273
834.808	249.055
839.355	11.0625
843.899	73.4609
848.441	64.1094
852.98	61.9883
857.516	74.2734
862.05	291.113
866.581	398.555
871.11	169.59
875.636	179.211
880.159	61.5625
884.68	126.035
889.199	8.21484
893.714	74.4336
898.228	39.832
902.738	321.672
907.246	118.742
911.752	382.34
916.255	76.5859
920.755	211.797
925.253	135.602
929.748	71.1406
934.241	250.023
938.731	67.8633
943.218	314.992
947.703	281.602
952.186	80.75
956.665	195.18
961.142	8.16406
965.617	263.422
970.089	323.754
974.558	559.078
979.025	162.039
983.489	404.16
987.951	320.68
992.41	283.207
996.866	243.25
1001.32	354.199
1005.77	401.035
1010.22	244.305
1014.67	195.844
1019.11	450.367
1023.55	562.875
1027.99	682.805
1032.42	518.336
1036.86	221.008
1041.29	667.434
1045.72	952.266
1050.14	555.152
1054.56	1099.04
1058.98	1295.57
1063.4	1022.38
1067.82	1184.1
1072.23	1490.64
1076.64	1201.19
1081.05	1621.43
1085.45	1656.75
1089.85	2058.51
1094.25	1577.52
1098.65	1708.12
1103.04	2101.95
1107.43	2049.27
1111.82	2153.37
1116.21	2389.55
1120.59	2672.49
1124.97	2696.3
1129.35	2993.73
1133.73	2937.63
1138.1	1910.66
1142.47	1251.88
1146.84	810.793
1151.21	539.144
1155.57	297.531
1159.93	171.973
1164.29	3.70703
1168.64	301.469
1172.99	128.234
1177.34	321.113
1181.69	238.602
1186.04	167.66
1190.38	180.277
1194.72	185.387
1199.05	268.707
1203.39	44.1953
1207.72	93.6328
1212.05	163.684
1216.37	166.18
1220.7	241.469
1225.02	241.527
1229.34	61.625
1233.65	312.684
1237.97	511.742
1242.28	226.769
1246.59	283.688
1250.89	151.379
1255.19	290.016
1259.49	44.2695
1263.79	190.68
1268.09	225.699
1272.38	43.5234
1276.67	176.731
1280.95	191.586
1285.24	268.316
1289.52	125.981
1293.8	108.461
1298.08	366.941
1302.35	209.613
1306.62	446.875
1310.89	354.695
1315.15	132.621
1319.42	199.098
1323.68	0.023438
1327.94	214.715
1332.19	602.152
1336.44	218.004
1340.69	345.492
1344.94	278.867
1349.19	203.762
1353.43	117.301
1357.67	607.938
1361.9	432.078
1366.14	465.062
1370.37	337.844
1374.6	268.633
1378.83	333.613
1383.05	13.7031
1387.27	253.191
1391.49	47.1602
1395.7	418.039
1399.92	216.082
1404.13	120.25
1408.34	157.848
1412.54	221.117
1416.74	411.82
1420.94	238.688
1425.14	158.441
1429.34	55.3516
1433.53	453.008
1437.72	367.848
1441.9	389.215
1446.09	537.016
1450.27	315.91
1454.45	360.805
1458.63	276.137
1462.8	482.457
1466.97	474.543
1471.14	61.2305
1475.31	453.867
1479.47	306.891
1483.63	304.746
1487.79	35.8438
1491.94	464.465
1496.09	45.8477
1500.24	275.234
1504.39	384.566
1508.54	319.117
1512.68	103.336
1516.82	432.406
1520.95	87.8047
1525.09	440.988
1529.22	507.996
1533.35	274.566
1537.47	354.762
1541.6	106.91
1545.72	203.82
1549.83	280.68
1553.95	347.508
1558.06	384.481
1562.17	445.527
1566.28	212.309
1570.38	1.39062
