Measurement: Raman, 514 nm, ccw, Raman Data Processed
Mineral: Trilithionite
Rruff sample: R040105
Ideal chemistry: KLi_1.5_Al_1.5_(Si_3_Al)O_10_F_2_
Locality: Brown Derby mine, Ohio City, Gunnison County, Colorado, USA
Source: University of Arizona Mineral Museum
Description: Purple hexagonal tablet
Measured chemistry: (K_0.82_Li_0.14_Na_0.04_)(Li_0.53_Al_0.42_Mn_0.05_)_3_(Si_0.84_Al_0.17_)_4_O_10_((OH)_0.59_F_0.41_)_2_
Pin_id: L00110
Orientation: Laser parallel to a* (1 0 0). Fiducial mark perpendicular to laser is parallel to b [0 1 0]
Raman shift (cm-1)	intensity
139.043	0
143.956	44.4023
148.867	25.2148
153.775	85.9316
158.681	155.566
163.585	171.496
168.486	314.221
173.385	744.693
178.282	840.152
183.176	918.473
188.067	856.1
192.956	809.807
197.843	522.164
202.727	467.6
207.609	386.824
212.489	222.824
217.366	377.381
222.24	312.639
227.112	412.85
231.982	650.1
236.849	955.963
241.714	1316.96
246.577	1785.75
251.437	2110.7
256.294	2455.15
261.149	3045.64
266.002	2505.9
270.852	1762.05
275.7	1200
280.545	862.746
285.388	547.219
290.229	449.799
295.067	388.254
299.902	488.514
304.735	366.394
309.566	367.713
314.394	223.328
319.22	282.139
324.043	86.6894
328.864	128.205
333.682	32.3008
338.498	4.64453
343.311	21.3086
348.122	28.5684
352.931	11.832
357.737	117.725
362.54	11.6504
367.341	222.535
372.14	168.844
376.936	347.613
381.73	290.221
386.521	535.68
391.31	538.426
396.096	682.275
400.88	857.834
405.661	933.24
410.44	771.488
415.216	846.572
419.99	602.498
424.761	504.269
429.53	498.891
434.297	426.398
439.061	490.789
443.822	393.068
448.581	509.725
453.337	444.731
458.091	356.906
462.843	612.785
467.592	339.141
472.338	607.551
477.082	625.189
481.824	345.166
486.563	280.027
491.3	215.943
496.034	856.229
500.765	51.6953
505.494	69.4297
510.221	11.0391
514.945	3.51758
519.666	144.894
524.385	92.8496
529.102	16.3613
533.816	363.227
538.527	379.941
543.236	379.719
547.943	452.34
552.647	635.856
557.348	957.271
562.047	968.613
566.744	1000.93
571.438	745.152
576.129	517.195
580.818	348.109
585.504	398.943
590.188	150.654
594.87	94.2148
599.549	149.565
604.225	283.658
608.899	437.475
613.57	238.098
618.239	349.525
622.905	320.793
627.569	135.894
632.23	179.637
636.889	332.795
641.545	114.141
646.198	215.107
650.849	205.529
655.498	25.4863
660.144	318.541
664.787	429.623
669.428	600.717
674.067	694.143
678.703	1001.89
683.336	1359.65
687.967	2102.31
692.595	3098.55
697.221	4890.64
701.844	7743.36
706.465	10020.5
711.083	9245.19
715.698	5789.19
720.311	3319.05
724.922	1917.19
729.53	1293.27
734.135	746.644
738.738	620.9
743.338	718.711
747.936	660.518
752.531	656.824
757.124	500.228
761.714	604.076
766.302	548.061
770.887	455.789
775.469	598.729
780.049	277.154
784.626	419.211
789.201	248.035
793.773	27.8477
798.343	196.426
802.91	100.199
807.475	218.34
812.037	42.3125
816.596	77.3086
821.153	215.523
825.707	5.76562
830.259	46.2188
834.808	107.168
839.355	15.25
843.899	173.59
848.441	154.457
852.98	2.07031
857.516	144.824
862.05	284.184
866.581	316.949
871.11	247.273
875.636	163.25
880.159	84.9023
884.68	254.176
889.199	178.102
893.714	142.699
898.228	118.934
902.738	121.777
907.246	100.18
911.752	98.3984
916.255	65.6797
920.755	190.914
925.253	342.117
929.748	276.641
934.241	407.438
938.731	211.336
943.218	112.926
947.703	197.332
952.186	127.023
956.665	291.629
961.142	394.758
965.617	2.09375
970.089	235.637
974.558	283.215
979.025	195.422
983.489	354.574
987.951	137.746
992.41	420.254
996.866	281.547
1001.32	65.7695
1005.77	402.629
1010.22	362.234
1014.67	270.797
1019.11	395.027
1023.55	328.184
1027.99	22.8047
1032.42	515.492
1036.86	334.977
1041.29	171.746
1045.72	347.719
1050.14	324.984
1054.56	316.438
1058.98	505.988
1063.4	323.531
1067.82	635.156
1072.23	486.703
1076.64	684.625
1081.05	666.863
1085.45	795.398
1089.85	883.18
1094.25	624.18
1098.65	817.191
1103.04	614.137
1107.43	799.094
1111.82	803.867
1116.21	996.758
1120.59	876.758
1124.97	1351.99
1129.35	969.316
1133.73	461.977
1138.1	385.789
1142.47	269.344
1146.84	127.43
1151.21	257.199
1155.57	219.207
1159.93	75.6914
1164.29	398.672
1168.64	18.5547
1172.99	353.285
1177.34	277.969
1181.69	395.711
1186.04	9.44922
1190.38	323.535
1194.72	267.613
1199.05	65.8438
1203.39	356.168
1207.72	306.555
1212.05	356
1216.37	177.633
1220.7	5.17188
1225.02	534.859
1229.34	109.918
1233.65	293.652
1237.97	403.16
1242.28	377.602
1246.59	278.039
1250.89	366.625
1255.19	12.9141
1259.49	145.457
1263.79	491.684
1268.09	263.176
1272.38	438.336
1276.67	284.648
1280.95	6.30078
1285.24	112.098
1289.52	416.559
1293.8	188.426
1298.08	300.918
1302.35	572.117
1306.62	372.176
1310.89	372.887
1315.15	248.961
1319.42	246.578
1323.68	240.602
1327.94	237.207
1332.19	333.16
1336.44	460.082
1340.69	73.4492
1344.94	411.328
1349.19	124.141
1353.43	13.9453
1357.67	384.648
1361.9	419.57
1366.14	136.606
1370.37	252.035
1374.6	338.391
1378.83	255.719
1383.05	441.293
1387.27	136.094
1391.49	125.801
1395.7	176.828
1399.92	398.238
1404.13	11.6328
1408.34	217.246
1412.54	288.5
1416.74	119.769
1420.94	298.519
1425.14	164.086
1429.34	354.328
1433.53	196.258
1437.72	526.867
1441.9	265.535
1446.09	634.559
1450.27	103.324
1454.45	137.367
1458.63	592.008
1462.8	257.434
1466.97	455.5
1471.14	316.262
1475.31	301.156
1479.47	105.109
1483.63	579.062
1487.79	422.398
1491.94	162.965
1496.09	326.703
1500.24	279.965
1504.39	11.2188
1508.54	75.6797
1512.68	125.168
1516.82	424.332
1520.95	190.902
1525.09	300.816
1529.22	291.559
1533.35	191.195
1537.47	678.164
1541.6	18.8672
1545.72	660.277
1549.83	35.8906
1553.95	305.746
1558.06	567.703
1562.17	491.887
1566.28	396.82
1570.38	46.0469
