Measurement: Raman, 514 nm, ccw, Raman Data Processed
Mineral: Trilithionite
Rruff sample: R040105
Ideal chemistry: KLi_1.5_Al_1.5_(Si_3_Al)O_10_F_2_
Locality: Brown Derby mine, Ohio City, Gunnison County, Colorado, USA
Source: University of Arizona Mineral Museum
Description: Purple hexagonal tablet
Measured chemistry: (K_0.82_Li_0.14_Na_0.04_)(Li_0.53_Al_0.42_Mn_0.05_)_3_(Si_0.84_Al_0.17_)_4_O_10_((OH)_0.59_F_0.41_)_2_
Pin_id: L01598
Orientation: Laser parallel to c* (0 0 1). Fiducial mark perpendicular to laser is parallel to -a [-1 0 0]
Raman shift (cm-1)	intensity
151.321	0
156.229	17.1338
161.134	5.26269
166.036	286.579
170.936	892.173
175.834	1495.71
180.729	1941.19
185.622	1513.41
190.512	1131.69
195.4	669.473
200.286	746.146
205.169	499.96
210.049	255.134
214.928	576.914
219.803	587.432
224.677	804.521
229.548	1275.85
234.416	1986.44
239.282	2650.73
244.146	3982.71
249.007	5561.2
253.866	6949.51
258.722	8877.07
263.576	8717.65
268.427	6322.78
273.276	4055.37
278.123	2905.08
282.967	1980.81
287.809	1525.62
292.648	1166.57
297.485	954.523
302.319	963.168
307.151	882.236
311.98	626.94
316.807	630.66
321.631	380.161
326.454	219.257
331.273	167.744
336.09	109.414
340.905	71.9551
345.717	45.0312
350.527	194.126
355.334	79.6592
360.139	291.108
364.941	384.495
369.741	535.083
374.538	1057.04
379.333	1056.71
384.126	1392.46
388.916	2037.33
393.703	2628.64
398.488	2975.74
403.271	3259.74
408.051	3154.37
412.828	2574.69
417.603	1922.71
422.376	1694.44
427.146	1270.9
431.914	1411.73
436.679	1475.11
441.442	1473.87
446.202	1311.25
450.96	1156.24
455.715	1218.82
460.467	1169.97
465.218	1191.51
469.965	1487.17
474.711	1685.12
479.454	1503.95
484.194	1017.74
488.932	709.33
493.667	91.5566
498.4	31.2109
503.13	89.4356
507.858	41.1152
512.583	128.749
517.306	43.2754
522.026	204.049
526.744	350.767
531.459	447.896
536.172	859.62
540.882	1114.25
545.59	1524.61
550.295	1815.39
554.998	2485.34
559.698	2935.57
564.396	3038.94
569.091	2347.44
573.784	1607.08
578.474	1053.86
583.162	772.8
587.847	545.895
592.529	539.16
597.209	583.599
601.887	725.223
606.562	845.037
611.235	1018.07
615.905	1069.36
620.572	1010.13
625.237	979.648
629.9	606.508
634.56	473.471
639.217	408.545
643.872	429.705
648.524	562.938
653.174	554.668
657.821	709.363
662.466	754.799
667.108	1064.76
671.748	1481.18
676.385	2059.16
681.02	2901.15
685.652	4708.68
690.281	7206.93
694.908	11308.1
699.533	18330.5
704.155	28490
708.774	33263.7
713.391	23507.5
718.005	12703.4
722.617	6911.36
727.226	4080.41
731.833	2617.54
736.437	2040.74
741.039	1699.01
745.638	1627.34
750.234	1739.71
754.828	1303.14
759.419	1104.61
764.008	709.094
768.595	584.588
773.178	528.057
777.759	491.576
782.338	524.314
786.914	446.244
791.488	442.293
796.059	230.428
800.627	58.5586
805.193	215.627
809.756	159.978
814.317	109.785
818.875	134.315
823.431	52.9473
827.984	71.7305
832.534	133.777
837.082	228.012
841.627	488.75
846.17	663.428
850.71	619.137
855.248	492.728
859.783	999.201
864.316	794.551
868.846	693.779
873.373	520.887
877.898	687.875
882.42	679.738
886.94	574.494
891.457	829.129
895.971	590.668
900.483	694.111
904.993	672.465
909.5	780.818
914.004	712.066
918.505	741.199
923.004	859.254
927.501	707.375
931.995	872.646
936.486	683.686
940.975	437.185
945.461	379.725
949.945	265.609
954.426	415.201
958.904	136.623
963.38	59.9141
967.853	69.0801
972.324	58.5176
976.792	45.1426
981.258	49.7637
985.72	74.418
990.181	120.131
994.639	72.9082
999.094	387.744
1003.55	1398.65
1008	404.625
1012.44	462.299
1016.89	645.734
1021.33	562.338
1025.77	743.479
1030.21	581.955
1034.64	272.473
1039.07	451.602
1043.5	597.305
1047.93	617.941
1052.35	908.271
1056.78	1069.3
1061.19	1149.5
1065.61	1618.85
1070.02	1770.65
1074.43	2122.32
1078.84	2385.14
1083.25	2848.29
1087.65	2603.12
1092.05	2729.08
1096.45	2137.17
1100.85	2237.36
1105.24	2161.68
1109.63	1999.21
1114.02	2004.69
1118.4	2062.04
1122.78	2063.4
1127.16	1641.76
1131.54	1311.13
1135.92	1063.51
1140.29	495.891
1144.66	383.277
1149.02	300.426
1153.39	198.039
1157.75	27.5938
1162.11	141.824
1166.46	8.05664
1170.82	7.93164
1175.17	56.1719
1179.52	0.095703
1183.86	27.2246
1188.21	109.514
1192.55	116.254
1196.89	171.402
1201.22	70.1367
1205.55	62.998
1209.88	67.9785
1214.21	26.209
1218.54	15.2578
1222.86	306.662
1227.18	37.7637
1231.5	256.65
1235.81	267.51
1240.12	296.33
1244.43	330.121
1248.74	492.912
1253.04	517.689
1257.34	259.535
1261.64	390.428
1265.94	484.307
1270.23	524.156
1274.52	567.986
1278.81	602.801
1283.1	972.227
1287.38	620.977
1291.66	1002.73
1295.94	1406.6
1300.21	1824.46
1304.48	1909.01
1308.75	1709.06
1313.02	1554.37
1317.29	1032
1321.55	958.344
1325.81	684.465
1330.06	716.025
1334.32	368.352
1338.57	211.996
1342.82	346.783
1347.06	297.494
1351.31	192.369
1355.55	21.5156
1359.79	119.512
1364.02	234.147
1368.26	331.943
1372.49	307.926
1376.71	232.693
1380.94	187.195
1385.16	454.119
1389.38	363.949
1393.6	332.932
1397.81	239.977
1402.02	367.764
1406.23	388.723
1410.44	453.574
1414.64	755.236
1418.85	665.879
1423.04	738.656
1427.24	1061.39
1431.43	1777.47
1435.62	2868.95
1439.81	3278.68
1444	3123.04
1448.18	2791.16
1452.36	2715.27
1456.54	2572
1460.71	2129.35
1464.89	1818.27
1469.06	1291.81
1473.22	759.676
1477.39	632.662
1481.55	701.484
1485.71	471.43
1489.86	257.582
1494.02	210.986
1498.17	38.9707
1502.32	164.688
1506.46	8.21289
1510.61	71.6152
1514.75	66.4844
1518.88	89.2402
1523.02	45.5996
1527.15	138.598
1531.28	290.412
1535.41	101.383
1539.53	95.7539
1543.66	300.713
1547.78	47.7949
1551.89	133.43
1556.01	327.082
1560.12	7.61719
1564.23	148.68
1568.33	2.85742
