Measurement: Raman, 514 nm, ccw, Raman Data Processed
Mineral: Trilithionite
Rruff sample: R040105
Ideal chemistry: KLi_1.5_Al_1.5_(Si_3_Al)O_10_F_2_
Locality: Brown Derby mine, Ohio City, Gunnison County, Colorado, USA
Source: University of Arizona Mineral Museum
Description: Purple hexagonal tablet
Measured chemistry: (K_0.82_Li_0.14_Na_0.04_)(Li_0.53_Al_0.42_Mn_0.05_)_3_(Si_0.84_Al_0.17_)_4_O_10_((OH)_0.59_F_0.41_)_2_
Pin_id: L01837
Orientation: Laser parallel to -b* (0 -1 0). Fiducial mark perpendicular to laser is parallel to c [0 0 1]
Raman shift (cm-1)	intensity
139.043	0
143.956	151.111
148.867	244.022
153.775	280.484
158.681	429.19
163.585	977.637
168.486	2226.44
173.385	4282.96
178.282	7335.1
183.176	9332.49
188.067	8361.89
192.956	5851.41
197.843	4828.93
202.727	4112.49
207.609	3392.28
212.489	3361.34
217.366	3376.43
222.24	3850.58
227.112	4350.34
231.982	5043.82
236.849	6302.99
241.714	6789.82
246.577	7578.27
251.437	8012.28
256.294	8479.06
261.149	8812.2
266.002	7999.35
270.852	5974.97
275.7	3831.89
280.545	2648.09
285.388	1863.76
290.229	1353.03
295.067	1329.88
299.902	963.342
304.735	821.482
309.566	691.764
314.394	650.666
319.22	480.797
324.043	249.869
328.864	180.685
333.682	172.098
338.498	113.994
343.311	176.861
348.122	29.2422
352.931	108.998
357.737	220.115
362.54	122.838
367.341	119.887
372.14	11.6465
376.936	245.891
381.73	258.346
386.521	208.725
391.31	572.26
396.096	484.996
400.88	708.732
405.661	823.357
410.44	732.062
415.216	762.846
419.99	260.707
424.761	131.644
429.53	168.656
434.297	293.023
439.061	217.701
443.822	158.596
448.581	302.633
453.337	342.766
458.091	304.965
462.843	267.209
467.592	465.473
472.338	168.746
477.082	429.103
481.824	273.379
486.563	221.356
491.3	92.0801
496.034	5.46094
500.765	59.4375
505.494	221.127
510.221	93.3535
514.945	32.582
519.666	57.9844
524.385	70.4766
529.102	155.963
533.816	476.572
538.527	297.35
543.236	311.584
547.943	616.268
552.647	1032.24
557.348	1214.71
562.047	1453.71
566.744	1724.33
571.438	1314.67
576.129	876.416
580.818	790.301
585.504	816.359
590.188	58.6836
594.87	311.205
599.549	132.848
604.225	535.607
608.899	416.486
613.57	571.615
618.239	703.064
622.905	296.684
627.569	332.516
632.23	320.051
636.889	375.014
641.545	430.184
646.198	586.957
650.849	836.894
655.498	672.717
660.144	757.055
664.787	1115.56
669.428	1189.21
674.067	1088.57
678.703	1601.28
683.336	1895.14
687.967	2908.66
692.595	4162.73
697.221	6177.52
701.844	9584.69
706.465	15330.8
711.083	18931.4
715.698	13868
720.311	7394.94
724.922	3941.07
729.53	2420.95
734.135	1607.26
738.738	1185.21
743.338	1236.12
747.936	1188.13
752.531	956.394
757.124	1091.65
761.714	818.188
766.302	419.758
770.887	346.094
775.469	541.098
780.049	551.883
784.626	539.285
789.201	322.824
793.773	228.199
798.343	171.363
802.91	105.824
807.475	133.012
812.037	120.684
816.596	79.6797
821.153	103.398
825.707	73.7422
830.259	41.3516
834.808	24.3789
839.355	159.977
843.899	58.1992
848.441	99.918
852.98	236.898
857.516	116.519
862.05	469.641
866.581	159.156
871.11	125.219
875.636	241.945
880.159	103.316
884.68	46.6875
889.199	129.328
893.714	38.332
898.228	334.621
902.738	141.57
907.246	32.8125
911.752	98.3633
916.255	278.207
920.755	104.992
925.253	9.82422
929.748	181.82
934.241	105.172
938.731	203.715
943.218	350.625
947.703	302.762
952.186	456.566
956.665	282.656
961.142	575.981
965.617	216.438
970.089	219.094
974.558	361.621
979.025	517.691
983.489	358.867
987.951	220.816
992.41	271.051
996.866	323.207
1001.32	546.41
1005.77	581.844
1010.22	779.922
1014.67	560.949
1019.11	536.883
1023.55	942.141
1027.99	500.617
1032.42	643.957
1036.86	768.695
1041.29	863.418
1045.72	412.488
1050.14	1065.52
1054.56	896.277
1058.98	1364.64
1063.4	1426.07
1067.82	1290.57
1072.23	1587.74
1076.64	1956.45
1081.05	1955
1085.45	2124.39
1089.85	2217.81
1094.25	2255.52
1098.65	2271.69
1103.04	2524.95
1107.43	2379.38
1111.82	2527.71
1116.21	3299.36
1120.59	3003.33
1124.97	3762.02
1129.35	3920.49
1133.73	3862.27
1138.1	3189.27
1142.47	2190.55
1146.84	1391.02
1151.21	897.672
1155.57	296.793
1159.93	212.25
1164.29	255.91
1168.64	195.418
1172.99	222.461
1177.34	151.766
1181.69	222.699
1186.04	89.8203
1190.38	120.269
1194.72	332.281
1199.05	112.852
1203.39	277.981
1207.72	22.7109
1212.05	375.512
1216.37	72.4609
1220.7	84.5469
1225.02	127.746
1229.34	337.375
1233.65	11.2109
1237.97	288.148
1242.28	24.4727
1246.59	149.898
1250.89	309.449
1255.19	72.9922
1259.49	479.496
1263.79	33.0859
1268.09	257.356
1272.38	175.086
1276.67	51.7109
1280.95	318.273
1285.24	88.832
1289.52	94.3867
1293.8	30.0547
1298.08	97.6016
1302.35	201.836
1306.62	67
1310.89	77.1992
1315.15	129.914
1319.42	119.566
1323.68	195.957
1327.94	417.508
1332.19	411.098
1336.44	253.894
1340.69	413.734
1344.94	194.086
1349.19	249.266
1353.43	410.926
1357.67	232.434
1361.9	66.6836
1366.14	186.43
1370.37	468.684
1374.6	230.711
1378.83	467.305
1383.05	211.059
1387.27	339.738
1391.49	96.8164
1395.7	212.555
1399.92	160
1404.13	159.203
1408.34	388.465
1412.54	333.606
1416.74	411.977
1420.94	377.562
1425.14	384.332
1429.34	327.606
1433.53	55.5391
1437.72	81.7305
1441.9	425.289
1446.09	10.457
1450.27	445.141
1454.45	296.695
1458.63	272.488
1462.8	262.191
1466.97	139.125
1471.14	332.754
1475.31	315.426
1479.47	434.945
1483.63	188.469
1487.79	353.75
1491.94	321.652
1496.09	11.4336
1500.24	183.691
1504.39	282.844
1508.54	172.234
1512.68	9.88281
1516.82	198.457
1520.95	80.4375
1525.09	163.402
1529.22	224.523
1533.35	82.6562
1537.47	396.344
1541.6	583.309
1545.72	319.59
1549.83	188.324
1553.95	213.746
1558.06	169.676
1562.17	316.184
1566.28	363.144
1570.38	0.277344
