Measurement: Raman, 514 nm, ccw, Raman Data Processed
Mineral: Trilithionite
Rruff sample: R040105
Ideal chemistry: KLi_1.5_Al_1.5_(Si_3_Al)O_10_F_2_
Locality: Brown Derby mine, Ohio City, Gunnison County, Colorado, USA
Source: University of Arizona Mineral Museum
Description: Purple hexagonal tablet
Measured chemistry: (K_0.82_Li_0.14_Na_0.04_)(Li_0.53_Al_0.42_Mn_0.05_)_3_(Si_0.84_Al_0.17_)_4_O_10_((OH)_0.59_F_0.41_)_2_
Pin_id: L01598
Orientation: Laser parallel to c* (0 0 1). Fiducial mark perpendicular to laser is parallel to -a [-1 0 0]
Raman shift (cm-1)	intensity
151.321	0
156.229	55.9844
161.134	30.0254
166.036	290.922
170.936	853.377
175.834	1374.1
180.729	1530.61
185.622	1515.71
190.512	782.531
195.4	677.854
200.286	791.766
205.169	472.482
210.049	87.8769
214.928	454.947
219.803	242.779
224.677	599.725
229.548	670.873
234.416	1368.41
239.282	2109.83
244.146	2944.99
249.007	4028.45
253.866	5543.11
258.722	7051.39
263.576	6892.32
268.427	4918.15
273.276	3195.28
278.123	2281.47
282.967	1524.29
287.809	975.742
292.648	940.943
297.485	900.518
302.319	726.352
307.151	687.865
311.98	462.904
316.807	378.85
321.631	368.465
326.454	338.557
331.273	215.971
336.09	135.475
340.905	42.377
345.717	114.758
350.527	155.691
355.334	244.922
360.139	237.873
364.941	528.49
369.741	386.326
374.538	777.061
379.333	970.793
384.126	1256.16
388.916	1425.39
393.703	2081.89
398.488	2563.49
403.271	2974.08
408.051	2653.14
412.828	2232.8
417.603	1752.12
422.376	1347.08
427.146	1223.72
431.914	1312.05
436.679	1481.08
441.442	1742.83
446.202	1824.12
450.96	1530.94
455.715	1563.27
460.467	1234.77
465.218	1501.16
469.965	1491.8
474.711	1511.01
479.454	1581.11
484.194	862.01
488.932	513.451
493.667	334.963
498.4	171.695
503.13	70.668
507.858	246.94
512.583	21.2559
517.306	101.092
522.026	225.248
526.744	397.391
531.459	591.574
536.172	804.291
540.882	1071.8
545.59	1423.95
550.295	1749.7
554.998	2375.18
559.698	2402.66
564.396	2579.67
569.091	2041.7
573.784	1476.76
578.474	1041.84
583.162	661.943
587.847	401.09
592.529	462.279
597.209	413.516
601.887	566.814
606.562	596.199
611.235	712.689
615.905	816.311
620.572	753.316
625.237	581.248
629.9	482.965
634.56	377.768
639.217	196.971
643.872	89.9121
648.524	202.141
653.174	288.457
657.821	534.76
662.466	525.301
667.108	792.16
671.748	1121.97
676.385	1573
681.02	2444.99
685.652	3671.11
690.281	5683.49
694.908	9151.11
699.533	15077.2
704.155	23487.6
708.774	27431.6
713.391	19546.6
718.005	10517.6
722.617	5720.5
727.226	3511.35
731.833	2283.14
736.437	1619.87
741.039	1416.52
745.638	1530.08
750.234	1303.57
754.828	1347.96
759.419	1270.26
764.008	696.445
768.595	765.504
773.178	568.42
777.759	597.174
782.338	447.045
786.914	574.793
791.488	280.084
796.059	399.256
800.627	25.0918
805.193	83.3379
809.756	200.873
814.317	263.869
818.875	206.691
823.431	4.9082
827.984	112.334
832.534	136.307
837.082	65.4766
841.627	327.006
846.17	496.727
850.71	524.883
855.248	447.947
859.783	742.422
864.316	577.959
868.846	703.375
873.373	578.611
877.898	565.674
882.42	623.561
886.94	502.279
891.457	621.881
895.971	618.479
900.483	831.914
904.993	755.215
909.5	885.369
914.004	812.434
918.505	941.412
923.004	908.447
927.501	889.592
931.995	915.703
936.486	848.738
940.975	597.861
945.461	644.269
949.945	441.408
954.426	763.227
958.904	506.83
963.38	139.463
967.853	156.738
972.324	178.205
976.792	52.123
981.258	145.955
985.72	76.8144
990.181	236.758
994.639	340.775
999.094	507.889
1003.55	1215.11
1008	515.443
1012.44	569.887
1016.89	488.449
1021.33	534.133
1025.77	619.279
1030.21	838.211
1034.64	501.264
1039.07	581.594
1043.5	423.897
1047.93	666.26
1052.35	691.727
1056.78	1026.47
1061.19	1545.68
1065.61	1873.97
1070.02	2086.61
1074.43	2396.19
1078.84	2804.11
1083.25	3060.83
1087.65	2735.4
1092.05	2869.1
1096.45	2455.94
1100.85	2637.42
1105.24	2194.05
1109.63	2084.75
1114.02	2143.01
1118.4	2018.27
1122.78	1843.89
1127.16	1511.3
1131.54	1225.78
1135.92	842.332
1140.29	588.957
1144.66	241.66
1149.02	35.4336
1153.39	286.285
1157.75	27.0078
1162.11	235.59
1166.46	12.7578
1170.82	154.918
1175.17	26.3359
1179.52	67.3438
1183.86	145.019
1188.21	40.1836
1192.55	55.9531
1196.89	113.379
1201.22	173.457
1205.55	105.172
1209.88	285.934
1214.21	17.7422
1218.54	11.4219
1222.86	255.953
1227.18	274.039
1231.5	154.375
1235.81	240.371
1240.12	341.387
1244.43	269.543
1248.74	237.723
1253.04	262.957
1257.34	477.383
1261.64	349.977
1265.94	627.672
1270.23	651.594
1274.52	680.644
1278.81	920.766
1283.1	1062.94
1287.38	1084.86
1291.66	1303.19
1295.94	2387.48
1300.21	2268.04
1304.48	2236.69
1308.75	1928.38
1313.02	1748.68
1317.29	1013.78
1321.55	903.137
1325.81	749.387
1330.06	555.676
1334.32	552.305
1338.57	353.375
1342.82	249.594
1347.06	300.801
1351.31	476.199
1355.55	27.0234
1359.79	259.434
1364.02	191.602
1368.26	734.996
1372.49	643.676
1376.71	303.484
1380.94	166.113
1385.16	203.848
1389.38	364.434
1393.6	325.297
1397.81	323.062
1402.02	337.867
1406.23	476.34
1410.44	570.66
1414.64	546.527
1418.85	878.25
1423.04	1055.52
1427.24	1469.01
1431.43	2279.37
1435.62	3606.7
1439.81	4226.05
1444	4071.56
1448.18	3690.66
1452.36	3303.48
1456.54	3373.11
1460.71	2845.11
1464.89	2159.99
1469.06	1456.88
1473.22	1156.27
1477.39	767.156
1481.55	239.898
1485.71	293.477
1489.86	442.074
1494.02	344.012
1498.17	189.219
1502.32	247.703
1506.46	46.0117
1510.61	298.566
1514.75	50.4531
1518.88	104.777
1523.02	181.856
1527.15	130.324
1531.28	496.836
1535.41	542.344
1539.53	264.816
1543.66	245.871
1547.78	6.05078
1551.89	192.613
1556.01	409.129
1560.12	340.684
1564.23	290.914
1568.33	2.51953
