Measurement: Raman, 514 nm, ccw, Raman Data Processed
Mineral: Trilithionite
Rruff sample: R040105
Ideal chemistry: KLi_1.5_Al_1.5_(Si_3_Al)O_10_F_2_
Locality: Brown Derby mine, Ohio City, Gunnison County, Colorado, USA
Source: University of Arizona Mineral Museum
Description: Purple hexagonal tablet
Measured chemistry: (K_0.82_Li_0.14_Na_0.04_)(Li_0.53_Al_0.42_Mn_0.05_)_3_(Si_0.84_Al_0.17_)_4_O_10_((OH)_0.59_F_0.41_)_2_
Pin_id: L01837
Orientation: Laser parallel to -b* (0 -1 0). Fiducial mark perpendicular to laser is parallel to c [0 0 1]
Raman shift (cm-1)	intensity
139.043	0
143.956	11.8457
148.867	1.38867
153.775	61.8789
158.681	396.32
163.585	792.842
168.486	1476.36
173.385	2829.46
178.282	5029.82
183.176	6070.99
188.067	5457.64
192.956	4022.05
197.843	3222.76
202.727	2748.33
207.609	2226.39
212.489	1970.84
217.366	2153.81
222.24	2148.48
227.112	2474.39
231.982	3221.74
236.849	3617.58
241.714	4341.69
246.577	4831.16
251.437	5143.45
256.294	5508.5
261.149	5757.73
266.002	5111.6
270.852	3922.56
275.7	2359.52
280.545	1467.47
285.388	1373.54
290.229	674.525
295.067	822.646
299.902	773.047
304.735	490.246
309.566	590.674
314.394	374.023
319.22	315.978
324.043	262.81
328.864	107.822
333.682	13.1777
338.498	43.8125
343.311	74.5879
348.122	94.3516
352.931	39.627
357.737	106.647
362.54	38.2988
367.341	35.582
372.14	256.162
376.936	251.043
381.73	274.387
386.521	177.795
391.31	521.826
396.096	630.879
400.88	468.434
405.661	642.859
410.44	475.195
415.216	460.434
419.99	237.584
424.761	319.639
429.53	59.6094
434.297	134.613
439.061	219.684
443.822	260.932
448.581	320.465
453.337	349.893
458.091	259.772
462.843	78.543
467.592	277.188
472.338	298.707
477.082	457.096
481.824	241.342
486.563	165.068
491.3	122.215
496.034	289.148
500.765	56.0332
505.494	136.578
510.221	12.9414
514.945	49.7773
519.666	23.7734
524.385	73.0703
529.102	114.102
533.816	68.1055
538.527	326.797
543.236	274.455
547.943	300.562
552.647	462.676
557.348	886.955
562.047	1141.37
566.744	1252.89
571.438	1027.7
576.129	587.176
580.818	640.609
585.504	409.336
590.188	38.1074
594.87	203.803
599.549	232.404
604.225	302.787
608.899	364.232
613.57	623.699
618.239	268.176
622.905	451.57
627.569	251.941
632.23	313.057
636.889	251.482
641.545	102.299
646.198	182.357
650.849	437.637
655.498	398.721
660.144	657.439
664.787	857.631
669.428	831.312
674.067	1028.34
678.703	1138.9
683.336	1716.28
687.967	2093.8
692.595	2869.26
697.221	4571.16
701.844	7616.46
706.465	11696.4
711.083	14299.5
715.698	10304.5
720.311	5522.7
724.922	3012.49
729.53	1931.94
734.135	1469.09
738.738	1242.62
743.338	944.611
747.936	1012.31
752.531	806.193
757.124	928.506
761.714	881.822
766.302	584.984
770.887	263.799
775.469	529.469
780.049	337.994
784.626	424.711
789.201	353.848
793.773	198.984
798.343	123.316
802.91	301.055
807.475	32.9297
812.037	80.4883
816.596	80.9414
821.153	227.816
825.707	34.1602
830.259	43.2383
834.808	18.6055
839.355	33.0195
843.899	67.8633
848.441	33.082
852.98	196.711
857.516	66.6172
862.05	120.281
866.581	36.2461
871.11	310.672
875.636	351.586
880.159	148.926
884.68	62.6914
889.199	24.6953
893.714	5.96094
898.228	27.8047
902.738	133.922
907.246	41.4531
911.752	113.508
916.255	65.9844
920.755	47.957
925.253	234.144
929.748	48.7617
934.241	186.047
938.731	195.731
943.218	316.684
947.703	261.816
952.186	147.512
956.665	431.066
961.142	401.414
965.617	313.562
970.089	207.199
974.558	410.719
979.025	440.203
983.489	530.512
987.951	424.57
992.41	376.652
996.866	523.5
1001.32	275.606
1005.77	440.148
1010.22	476.184
1014.67	623.277
1019.11	510.164
1023.55	383.594
1027.99	193.742
1032.42	303.555
1036.86	524.621
1041.29	660.988
1045.72	263.398
1050.14	626.902
1054.56	725.742
1058.98	896.398
1063.4	1083.19
1067.82	849.781
1072.23	1155.07
1076.64	1129.66
1081.05	1365.43
1085.45	1474.64
1089.85	1515.25
1094.25	1486.74
1098.65	1727.54
1103.04	1899.63
1107.43	1845.14
1111.82	1965.92
1116.21	2343.23
1120.59	2412.34
1124.97	2365.7
1129.35	2780.37
1133.73	2784.63
1138.1	2469.16
1142.47	1489.46
1146.84	862.231
1151.21	499.273
1155.57	489.797
1159.93	209.246
1164.29	116.727
1168.64	384.445
1172.99	85.8633
1177.34	73.2305
1181.69	118.168
1186.04	171.539
1190.38	339.148
1194.72	232.356
1199.05	91.8008
1203.39	198.543
1207.72	158.586
1212.05	345.273
1216.37	57.2227
1220.7	230.938
1225.02	277.633
1229.34	219.324
1233.65	211.062
1237.97	325.059
1242.28	183.051
1246.59	456.199
1250.89	47.707
1255.19	53.207
1259.49	108.621
1263.79	274.457
1268.09	9.07812
1272.38	177.672
1276.67	139.59
1280.95	169.031
1285.24	129.566
1289.52	338.141
1293.8	428.644
1298.08	15.9258
1302.35	31.0664
1306.62	433.297
1310.89	327.019
1315.15	578.578
1319.42	207.914
1323.68	246.109
1327.94	313.164
1332.19	332.297
1336.44	144.484
1340.69	76.2227
1344.94	415.852
1349.19	454.09
1353.43	257.453
1357.67	461.816
1361.9	333.656
1366.14	498.012
1370.37	436.844
1374.6	249.106
1378.83	312.707
1383.05	276.219
1387.27	359.508
1391.49	93.2266
1395.7	245.754
1399.92	220.879
1404.13	219.125
1408.34	161.035
1412.54	282.316
1416.74	123.801
1420.94	172.289
1425.14	197.242
1429.34	304.934
1433.53	117.953
1437.72	539.566
1441.9	194.965
1446.09	521.664
1450.27	451.785
1454.45	251.523
1458.63	328.684
1462.8	381.262
1466.97	162.727
1471.14	321.41
1475.31	187.809
1479.47	117.891
1483.63	65.3711
1487.79	346.852
1491.94	536.34
1496.09	314.828
1500.24	346.551
1504.39	237.539
1508.54	401.988
1512.68	45.2773
1516.82	348.719
1520.95	104.188
1525.09	38.1289
1529.22	346.531
1533.35	632.961
1537.47	333.766
1541.6	321.988
1545.72	329.957
1549.83	235.902
1553.95	259.461
1558.06	233.606
1562.17	370.656
1566.28	165.062
1570.38	0.824219
