Measurement: Raman, 514 nm, ccw, Raman Data Processed
Mineral: Trilithionite
Rruff sample: R040101
Ideal chemistry: KLi_1.5_Al_1.5_(Si_3_Al)O_10_F_2_
Locality: Zambezi Region, Mozambique
Source: University of Arizona Mineral Museum
Description: Aggregate of purple hexagonal plates, polytype is 2M1
Measured chemistry: (K_0.84_Li_0.13_Na_0.02_)(Li_0.54_Al_0.44_Mn_0.02_)_3_(Si_0.82_Al_0.18_)_4_O_10_F_2.00_
Pin_id: M00449
Orientation: Laser parallel to -a* (-1 0 0). Fiducial mark perpendicular to laser is parallel to b [0 1 0]
Raman shift (cm-1)	intensity
117.729	0
121.897	0.997
126.063	135.377
130.228	159.306
134.39	215.781
138.55	112.653
142.709	60.461
146.865	49.939
151.019	39.839
155.171	114.298
159.322	337.524
163.47	773.353
167.617	1371.42
171.761	2290.43
175.904	3237.34
180.044	3414.05
184.183	2972.57
188.319	2547.16
192.454	2456.54
196.586	2506.63
200.717	2290.93
204.846	1949.96
208.972	2361.11
213.097	2349.27
217.22	1695.23
221.341	1502.14
225.46	972.316
229.577	1205.52
233.692	1717.54
237.805	2389.63
241.916	3504.89
246.025	4662.87
250.132	6085.02
254.237	9411.53
258.34	14015.4
262.442	15358.6
266.541	11738.1
270.639	7297.91
274.734	4411.08
278.828	2885.61
282.919	1982.6
287.009	1439.06
291.097	1288.48
295.183	1192.3
299.266	1403.74
303.348	1265.1
307.428	1161.72
311.507	928.192
315.583	697.734
319.657	479.162
323.729	279.277
327.8	170.774
331.868	50.638
335.935	85.14
339.999	138.688
344.062	98.761
348.123	132.604
352.182	29.163
356.239	394.473
360.294	513.505
364.347	910.801
368.398	1261.37
372.448	1717.23
376.495	1815.38
380.54	2470.82
384.584	2883.56
388.626	3290.62
392.666	4173.82
396.704	4866.56
400.74	5539.34
404.774	5720.44
408.806	5421.87
412.836	4615.63
416.865	3596.72
420.891	2473.13
424.916	1752.88
428.939	1731.94
432.959	1275.34
436.978	1165.07
440.996	1249.11
445.011	919.48
449.024	901.161
453.036	730.17
457.045	735.516
461.053	659.216
465.059	1018.28
469.063	1259.7
473.065	1618.53
477.065	1842.77
481.063	1426.41
485.06	965.385
489.054	567.698
493.047	100.356
497.038	83.147
501.027	65.611
505.014	82.485
508.999	126.654
512.982	225.239
516.964	35.197
520.944	147.028
524.921	107.35
528.897	383.247
532.871	813.62
536.844	836.464
540.814	1240.82
544.783	1750.67
548.749	2223.86
552.714	3026.44
556.677	3416.52
560.638	3675.1
564.597	3229.05
568.555	2423.4
572.511	1835.11
576.464	1267.14
580.416	556.486
584.366	362.136
588.315	220.08
592.261	386.308
596.206	294.812
600.148	326.587
604.089	416.626
608.028	755.926
611.965	970.477
615.901	887.273
619.834	1265.31
623.766	1407.58
627.696	1748.07
631.624	1711.78
635.551	1645.7
639.475	1701.82
643.398	1342.14
647.318	1178.1
651.237	1209.25
655.155	1451.29
659.07	1275.73
662.984	1436.81
666.895	1644.69
670.805	1687.5
674.713	2212.12
678.62	3150.19
682.524	4160.73
686.427	5730.18
690.328	8013.2
694.227	11272.6
698.124	16027.1
702.02	22555.4
705.913	30148.6
709.805	34854.1
713.695	26064.4
717.584	15338.4
721.47	9043.82
725.355	5578.13
729.238	4037.9
733.119	3220.32
736.998	3002.87
740.876	3200.64
744.752	3250.94
748.626	3521.05
752.498	3399.05
756.368	3138.94
760.237	2626.69
764.104	1944.31
767.969	1375.78
771.832	1292.11
775.693	1332.28
779.553	1174.29
783.411	1216.13
787.267	1041.8
791.122	816.279
794.974	532.574
798.825	336.673
802.674	118.565
806.522	135.234
810.367	113.515
814.211	16.685
818.053	93.489
821.893	9.057
825.732	111.854
829.568	33.34
833.403	112.329
837.236	52.306
841.068	19.613
844.898	129.499
848.726	148.887
852.552	46.981
856.376	149.165
860.199	61.542
864.02	82.231
867.839	104.254
871.656	119.809
875.472	16.938
879.286	59.712
883.098	145.204
886.909	150.516
890.717	337.555
894.524	267.358
898.33	331.887
902.133	438.14
905.935	648.117
909.735	852.844
913.533	804.336
917.33	893.597
921.124	739.584
924.918	713.288
928.709	674.707
932.499	628.881
936.286	669.816
940.073	756.501
943.857	838.929
947.64	757.07
951.421	895.92
955.2	899.005
958.978	954.854
962.753	882.577
966.527	979.006
970.3	772.68
974.071	726.885
977.84	865.238
981.607	931.699
985.372	1048.66
989.136	876.428
992.898	820.906
996.659	872.412
1000.42	868.74
1004.17	609.18
1007.93	775.812
1011.68	1063.16
1015.43	1012.89
1019.18	807.635
1022.93	961.27
1026.68	988.775
1030.42	753.74
1034.17	820.486
1037.91	688.949
1041.65	873.842
1045.39	790.312
1049.12	894.443
1052.86	978.635
1056.59	1227.77
1060.33	1228.86
1064.06	1350.17
1067.78	1339.42
1071.51	1382.59
1075.23	1572.14
1078.96	1684.41
1082.68	1820.75
1086.4	2011.84
1090.12	1887.13
1093.83	1805.56
1097.55	1944.42
1101.26	1905.56
1104.97	2034.42
1108.68	1978.46
1112.39	2348.29
1116.1	2064.64
1119.8	1985.6
1123.5	1937.68
1127.2	1615.94
1130.9	1218.46
1134.6	990.615
1138.3	972.256
1141.99	426.668
1145.69	279.359
1149.38	209.379
1153.07	60.588
1156.76	13.543
1160.44	68.656
1164.13	32.332
1167.81	114.996
1171.49	98.287
1175.17	45.461
1178.85	82.432
1182.52	21.857
1186.2	123.064
1189.87	154.055
1193.54	76.689
1197.21	141.029
1200.88	85.807
1204.55	70.148
1208.21	96.07
1211.88	24.896
1215.54	122.176
1219.2	223.785
1222.86	155.979
1226.51	61.754
1230.17	74.773
1233.82	207.203
1237.47	180.318
1241.12	52.811
1244.77	32.965
1248.42	42.648
1252.06	149.967
1255.71	61.199
1259.35	74.416
1262.99	52.732
1266.63	178.479
1270.26	85.805
1273.9	144.748
1277.53	75.76
1281.16	202.26
1284.8	89.902
1288.42	121.064
1292.05	85.15
1295.68	66.207
1299.3	9.793
1302.92	132.65
1306.55	160.539
1310.16	201
1313.78	65.402
1317.4	174.615
1321.01	29.035
1324.62	34.691
1328.24	167.895
1331.85	0.918
1335.45	54.324
1339.06	73.297
1342.66	316.145
1346.27	168.068
1349.87	310.822
1353.47	264.342
1357.07	373.221
1360.66	299.617
1364.26	248.773
1367.85	223.152
1371.44	374.785
1375.04	213.977
1378.62	301.311
1382.21	250.748
1385.8	382.363
1389.38	237.533
1392.96	331.469
1396.54	442.566
1400.12	254.537
1403.7	267.402
1407.28	172.26
1410.85	264.258
1414.42	421.398
1417.99	387.223
1421.56	479.131
1425.13	255.391
1428.7	298.236
1432.26	235.475
1435.83	437.477
1439.39	505.842
1442.95	485.002
1446.51	312.764
1450.06	348.598
1453.62	434.484
1457.17	622.215
1460.73	507.34
1464.28	177.311
1467.83	300.549
1471.37	347.299
1474.92	200.668
1478.46	259.688
1482.01	262.393
1485.55	324.387
1489.09	209.701
1492.63	299.627
1496.16	418.385
1499.7	159.172
1503.23	225.09
1506.76	258.289
1510.29	135.93
1513.82	233.902
1517.35	21.047
1520.88	0.033
1524.4	0
