Measurement: Raman, 514 nm, ccw, Raman Data Processed
Mineral: Trilithionite
Rruff sample: R040101
Ideal chemistry: KLi_1.5_Al_1.5_(Si_3_Al)O_10_F_2_
Locality: Zambezi Region, Mozambique
Source: University of Arizona Mineral Museum
Description: Aggregate of purple hexagonal plates, polytype is 2M1
Measured chemistry: (K_0.84_Li_0.13_Na_0.02_)(Li_0.54_Al_0.44_Mn_0.02_)_3_(Si_0.82_Al_0.18_)_4_O_10_F_2.00_
Pin_id: L00533
Orientation: Laser parallel to -b* (0 -1 0). Fiducial mark perpendicular to laser is parallel to c [0 0 1]
Raman shift (cm-1)	intensity
117.729	0
121.897	22.79
126.063	2.519
130.228	160.188
134.39	27.223
138.55	99.905
142.709	31.077
146.865	129.784
151.019	365.604
155.171	577.258
159.322	1080.75
163.47	1924.23
167.617	3508.87
171.761	5679.18
175.904	9270.07
180.044	13221.7
184.183	15835.2
188.319	15394.6
192.454	14932.7
196.586	15352.2
200.717	13221.1
204.846	9353.41
208.972	7515.11
213.097	6793.34
217.22	6737.13
221.341	6154.6
225.46	5879.71
229.577	6185.55
233.692	7188.08
237.805	8577.06
241.916	11035.8
246.025	13346.1
250.132	14799.9
254.237	17622.3
258.34	24121.2
262.442	30831.7
266.541	29217.6
270.639	19247
274.734	10823
278.828	6625.4
282.919	4448.87
287.009	3395.87
291.097	2696.67
295.183	2269.55
299.266	2124.95
303.348	2016.97
307.428	1557.83
311.507	1316.7
315.583	891.475
319.657	490.062
323.729	303.39
327.8	49.399
331.868	9.252
335.935	153.973
339.999	110.185
344.062	1.96
348.123	31.457
352.182	49.647
356.239	196.604
360.294	149.397
364.347	505.568
368.398	490.112
372.448	781.032
376.495	940.323
380.54	1024.98
384.584	1260
388.626	1338.37
392.666	1845.97
396.704	2211.72
400.74	2907.76
404.774	4254.11
408.806	3705.74
412.836	3232.65
416.865	2512.83
420.891	1668.29
424.916	859.015
428.939	653.996
432.959	209.23
436.978	194.713
440.996	249.044
445.011	102.017
449.024	77.351
453.036	98.074
457.045	111.849
461.053	130.379
465.059	259.944
469.063	181.834
473.065	479.024
477.065	430.502
481.063	536.258
485.06	287.277
489.054	11.447
493.047	75.548
497.038	120.521
501.027	143.776
505.014	57.413
508.999	123.167
512.982	108.426
516.964	281.428
520.944	320.604
524.921	290.32
528.897	535.575
532.871	853.1
536.844	931.881
540.814	1266.91
544.783	1513.3
548.749	1984.96
552.714	2786.91
556.677	3482.19
560.638	3716.74
564.597	3143.45
568.555	2452.34
572.511	1519.38
576.464	859.184
580.416	545.94
584.366	203.416
588.315	63.012
592.261	200.738
596.206	57.406
600.148	86.414
604.089	231.314
608.028	572.287
611.965	692.926
615.901	630.867
619.834	934.263
623.766	1038.48
627.696	1603.74
631.624	1580.04
635.551	1614.36
639.475	2054.7
643.398	1689.05
647.318	1515.69
651.237	1655.06
655.155	1857.41
659.07	1728.2
662.984	1922.78
666.895	2270.86
670.805	2373.67
674.713	2674.88
678.62	3349.84
682.524	4132.02
686.427	5525.51
690.328	6823.71
694.227	9510.48
698.124	12581.4
702.02	17196.9
705.913	22531.2
709.805	30289.3
713.695	30511.2
717.584	21161.9
721.47	11971.2
725.355	6604.48
729.238	4729.05
733.119	3613.87
736.998	3127.55
740.876	3377.85
744.752	3792.19
748.626	4284.8
752.498	4246.09
756.368	4157.95
760.237	3825.59
764.104	2961.33
767.969	2099.36
771.832	1856.57
775.693	1497.75
779.553	1455.94
783.411	1387.08
787.267	1319.92
791.122	1213.93
794.974	730.465
798.825	438.49
802.674	473.27
806.522	517.832
810.367	253.195
814.211	105.514
818.053	10.646
821.893	56.504
825.732	130.979
829.568	57.029
833.403	122.404
837.236	79.445
841.068	64.064
844.898	26.102
848.726	32.24
852.552	1.861
856.376	119.588
860.199	106.592
864.02	203.793
867.839	33.383
871.656	188.965
875.472	75.99
879.286	2.307
883.098	43.051
886.909	117.449
890.717	253.918
894.524	55.412
898.33	133.629
902.133	89.523
905.935	277.137
909.735	309.555
913.533	266.738
917.33	320.715
921.124	344.436
924.918	57.922
928.709	218.195
932.499	171.266
936.286	237.092
940.073	417.697
943.857	286.08
947.64	347.225
951.421	374.143
955.2	421.852
958.978	531.332
962.753	535.24
966.527	670.551
970.3	572.508
974.071	561.301
977.84	776.592
981.607	972.611
985.372	1091.34
989.136	821.5
992.898	835.102
996.659	896.529
1000.42	1120.94
1004.17	973.145
1007.93	1007.86
1011.68	1302.89
1015.43	1318.74
1019.18	1405.83
1022.93	1578.27
1026.68	1715.59
1030.42	1544.08
1034.17	1689.38
1037.91	1820.9
1041.65	2312.37
1045.39	2986.26
1049.12	3639.03
1052.86	4645.45
1056.59	5439.44
1060.33	6042.56
1064.06	5720.78
1067.78	4929.5
1071.51	4045.05
1075.23	3585.5
1078.96	3041.85
1082.68	2608.87
1086.4	2640.86
1090.12	2155.3
1093.83	2128.26
1097.55	1943.11
1101.26	2007.16
1104.97	2198.97
1108.68	2123.68
1112.39	2430.01
1116.1	2678.45
1119.8	2812.49
1123.5	3395.1
1127.2	3732.52
1130.9	4492.53
1134.6	5781.14
1138.3	7296.85
1141.99	8003.8
1145.69	7661.71
1149.38	5652.65
1153.07	3027.52
1156.76	1662.36
1160.44	890.811
1164.13	372.762
1167.81	335.541
1171.49	243.637
1175.17	132.092
1178.85	172.434
1182.52	138.379
1186.2	311.664
1189.87	202.822
1193.54	201.463
1197.21	110.014
1200.88	74.938
1204.55	390.654
1208.21	77.121
1211.88	57.131
1215.54	214.195
1219.2	49.682
1222.86	195.348
1226.51	61.547
1230.17	103.586
1233.82	67.326
1237.47	183.727
1241.12	48.65
1244.77	99.803
1248.42	211.795
1252.06	116.975
1255.71	31.426
1259.35	7.594
1262.99	73.844
1266.63	12.475
1270.26	10.379
1273.9	70.99
1277.53	4.449
1281.16	141.992
1284.8	141.682
1288.42	14.244
1292.05	159.795
1295.68	111.957
1299.3	112.977
1302.92	88.846
1306.55	149.945
1310.16	58.426
1313.78	26.287
1317.4	122.051
1321.01	64.266
1324.62	40.83
1328.24	312.441
1331.85	62.535
1335.45	2.488
1339.06	159.588
1342.66	207.791
1346.27	227.883
1349.87	447.135
1353.47	626.393
1357.07	452.834
1360.66	471.91
1364.26	380.072
1367.85	366.057
1371.44	328.477
1375.04	215.949
1378.62	397.703
1382.21	240.877
1385.8	416.934
1389.38	277.086
1392.96	578.738
1396.54	576.754
1400.12	337.318
1403.7	533.08
1407.28	370.391
1410.85	485.088
1414.42	492.52
1417.99	465.756
1421.56	493.877
1425.13	217.031
1428.7	420.311
1432.26	543.266
1435.83	387.9
1439.39	692.578
1442.95	584.875
1446.51	493.891
1450.06	590.141
1453.62	827.078
1457.17	822.291
1460.73	687.502
1464.28	343.955
1467.83	378.162
1471.37	484.037
1474.92	601.51
1478.46	405.83
1482.01	372.926
1485.55	353.977
1489.09	377.699
1492.63	318.742
1496.16	423.137
1499.7	203.355
1503.23	123.869
1506.76	360.352
1510.29	329.967
1513.82	144.172
