Measurement: Raman, 514 nm, ccw, Raman Data Processed
Mineral: Trilithionite
Rruff sample: R040101
Ideal chemistry: KLi_1.5_Al_1.5_(Si_3_Al)O_10_F_2_
Locality: Zambezi Region, Mozambique
Source: University of Arizona Mineral Museum
Description: Aggregate of purple hexagonal plates, polytype is 2M1
Measured chemistry: (K_0.84_Li_0.13_Na_0.02_)(Li_0.54_Al_0.44_Mn_0.02_)_3_(Si_0.82_Al_0.18_)_4_O_10_F_2.00_
Pin_id: L00533
Orientation: Laser parallel to -b* (0 -1 0). Fiducial mark perpendicular to laser is parallel to c [0 0 1]
Raman shift (cm-1)	intensity
117.729	0
121.897	23.08
126.063	205.018
130.228	220.695
134.39	212.74
138.55	366.996
142.709	143.424
146.865	379.777
151.019	383.256
155.171	397.572
159.322	710.861
163.47	1020.53
167.617	1554.19
171.761	2264.05
175.904	3262.7
180.044	3709.21
184.183	3963.67
188.319	3289.76
192.454	3230.24
196.586	3676.93
200.717	3662.6
204.846	3180.52
208.972	3232.68
213.097	3077.58
217.22	2996.46
221.341	2173.43
225.46	1516.34
229.577	1131.54
233.692	1110.71
237.805	1494.02
241.916	2523.74
246.025	3316.77
250.132	4237.67
254.237	6182.41
258.34	10200
262.442	14773.4
266.541	15184.5
270.639	10854.4
274.734	6216.02
278.828	3746.45
282.919	2428.33
287.009	1849.85
291.097	1315.39
295.183	1045.02
299.266	1281.2
303.348	1430.46
307.428	1233.5
311.507	1002.09
315.583	697.045
319.657	336.227
323.729	362.516
327.8	114.824
331.868	98.92
335.935	16.803
339.999	12.516
344.062	60.828
348.123	176.229
352.182	96.775
356.239	368.676
360.294	261.684
364.347	716.6
368.398	1208.38
372.448	1528.86
376.495	1805.9
380.54	2618.49
384.584	2659.62
388.626	3052.26
392.666	4075.37
396.704	4661.72
400.74	5894.2
404.774	6519.12
408.806	6524.48
412.836	6167.26
416.865	5073.46
420.891	3563.08
424.916	2372.1
428.939	1875.51
432.959	1398.32
436.978	1241.7
440.996	1214.26
445.011	1103.22
449.024	793.807
453.036	955.039
457.045	449.838
461.053	758.17
465.059	1116.01
469.063	1073.33
473.065	1363.11
477.065	1364.33
481.063	1388.98
485.06	1022.04
489.054	613.496
493.047	273.51
497.038	34.592
501.027	149.367
505.014	34.873
508.999	47.422
512.982	309.195
516.964	14.826
520.944	4.93
524.921	147.16
528.897	232.871
532.871	619.977
536.844	677.477
540.814	1084.45
544.783	1461
548.749	1971.1
552.714	2718.59
556.677	3064.46
560.638	3818.74
564.597	3475.37
568.555	2481.3
572.511	1805.56
576.464	1322.12
580.416	518.957
584.366	224.043
588.315	105.361
592.261	534.902
596.206	155.547
600.148	188.338
604.089	466.336
608.028	796.531
611.965	925.912
615.901	663.467
619.834	900.189
623.766	1082.07
627.696	1796.1
631.624	1679.27
635.551	1806.57
639.475	2086
643.398	1634.55
647.318	1335.21
651.237	1188.98
655.155	1506.84
659.07	972.602
662.984	979.619
666.895	1589.82
670.805	1235.18
674.713	1415.73
678.62	2215.32
682.524	2883.95
686.427	4473.27
690.328	5642.87
694.227	8295.79
698.124	11138.6
702.02	16032.6
705.913	20907.5
709.805	27900.3
713.695	27513.6
717.584	19323.6
721.47	11069.6
725.355	6185.67
729.238	4546.94
733.119	3431.6
736.998	2828.83
740.876	2785.42
744.752	3622.97
748.626	3826.37
752.498	4075.48
756.368	3672.7
760.237	3608.81
764.104	2827.81
767.969	1743.71
771.832	1642.49
775.693	1592.14
779.553	1465.68
783.411	1573.08
787.267	1162.36
791.122	1441.49
794.974	848.486
798.825	645.334
802.674	353.033
806.522	587.578
810.367	485.742
814.211	195.885
818.053	380.799
821.893	116.594
825.732	236.574
829.568	359.605
833.403	222.254
837.236	206.465
841.068	157.043
844.898	65.293
848.726	33.129
852.552	224.293
856.376	277.07
860.199	5.762
864.02	184.371
867.839	5.711
871.656	233.781
875.472	296.652
879.286	75.562
883.098	292.953
886.909	263.344
890.717	226.895
894.524	385.555
898.33	290.418
902.133	598.125
905.935	749.746
909.735	914.223
913.533	982.574
917.33	1332.84
921.124	1297.93
924.918	698.852
928.709	514.605
932.499	709.191
936.286	371.582
940.073	930.781
943.857	899.785
947.64	805.582
951.421	923.16
955.2	961.535
958.978	1170.7
962.753	1084.62
966.527	1004.71
970.3	876.129
974.071	559.352
977.84	1137.11
981.607	857.145
985.372	1289.96
989.136	1079.22
992.898	891.328
996.659	946.715
1000.42	1129.06
1004.17	802.84
1007.93	853.367
1011.68	1393.79
1015.43	1175.78
1019.18	1291.99
1022.93	1022.22
1026.68	1315.39
1030.42	1061.57
1034.17	836.535
1037.91	856.707
1041.65	931.867
1045.39	968.184
1049.12	948.891
1052.86	964.805
1056.59	1123.3
1060.33	1206.85
1064.06	1289.62
1067.78	1505.44
1071.51	1109.19
1075.23	1443.49
1078.96	1490.4
1082.68	1631.8
1086.4	1863.84
1090.12	1680.38
1093.83	1692.16
1097.55	1880.48
1101.26	1791.95
1104.97	2011.6
1108.68	1695.77
1112.39	2189.17
1116.1	2034.33
1119.8	1910.35
1123.5	1915.41
1127.2	1542.62
1130.9	848.746
1134.6	1005.89
1138.3	814.895
1141.99	438.82
1145.69	167.324
1149.38	367.059
1153.07	106.754
1156.76	91.504
1160.44	87.828
1164.13	229.559
1167.81	8.633
1171.49	140.727
1175.17	200.051
1178.85	195.164
1182.52	136.324
1186.2	229.828
1189.87	110.031
1193.54	179.328
1197.21	97.875
1200.88	243.824
1204.55	327.863
1208.21	199.664
1211.88	27.723
1215.54	356.781
1219.2	68.477
1222.86	185.133
1226.51	200.531
1230.17	102.75
1233.82	162.277
1237.47	282.852
1241.12	427.934
1244.77	394.828
1248.42	356.566
1252.06	511.035
1255.71	293.695
1259.35	28.516
1262.99	173.629
1266.63	232.117
1270.26	182.301
1273.9	263.566
1277.53	43.105
1281.16	453.309
1284.8	426.48
1288.42	307.605
1292.05	44.816
1295.68	56.73
1299.3	136.77
1302.92	270.898
1306.55	162.02
1310.16	430.969
1313.78	159.965
1317.4	208.555
1321.01	173.691
1324.62	254.141
1328.24	400.266
1331.85	51.484
1335.45	10.457
1339.06	124.941
1342.66	415.484
1346.27	255.312
1349.87	657.484
1353.47	653.059
1357.07	667.133
1360.66	569.156
1364.26	263.309
1367.85	451.293
1371.44	599.328
1375.04	296.594
1378.62	555.094
1382.21	621.793
1385.8	589.316
1389.38	527.406
1392.96	866.07
1396.54	967.84
1400.12	727.738
1403.7	595.184
1407.28	259.555
1410.85	560.043
1414.42	395.883
1417.99	518.152
1421.56	756.371
1425.13	482.168
1428.7	500.832
1432.26	519.918
1435.83	706.508
1439.39	910.711
1442.95	886.875
1446.51	896.332
1450.06	690.488
1453.62	1628.64
1457.17	1072.85
1460.73	826.242
1464.28	525.062
1467.83	491.121
1471.37	886.98
1474.92	1010.59
1478.46	478.699
1482.01	773.043
1485.55	605.938
1489.09	435.945
1492.63	598.098
1496.16	451.129
1499.7	139.227
1503.23	241.738
1506.76	509.289
1510.29	165
1513.82	487.504
1517.35	16.82
