Measurement: Raman, 514 nm, ccw, Raman Data Processed
Mineral: Trilithionite
Rruff sample: R040101
Ideal chemistry: KLi_1.5_Al_1.5_(Si_3_Al)O_10_F_2_
Locality: Zambezi Region, Mozambique
Source: University of Arizona Mineral Museum
Description: Aggregate of purple hexagonal plates, polytype is 2M1
Measured chemistry: (K_0.84_Li_0.13_Na_0.02_)(Li_0.54_Al_0.44_Mn_0.02_)_3_(Si_0.82_Al_0.18_)_4_O_10_F_2.00_
Pin_id: M00337
Orientation: Laser parallel to (1 0 1). Fiducial mark perpendicular to laser is parallel to b [0 1 0]
Raman shift (cm-1)	intensity
117.729	0
121.897	99.71
126.063	63.58
130.228	125.395
134.39	0.464
138.55	204.816
142.709	77.023
146.865	101.316
151.019	159.581
155.171	192.848
159.322	443.937
163.47	1038.78
167.617	1741.91
171.761	2793.19
175.904	3911.07
180.044	4481.16
184.183	4267.84
188.319	3602.49
192.454	3612.64
196.586	3901.67
200.717	3507.93
204.846	3145.24
208.972	3107.79
213.097	2813.48
217.22	2376.58
221.341	2015.27
225.46	1232.09
229.577	1291.55
233.692	1594.38
237.805	2211.07
241.916	3224.06
246.025	4003.21
250.132	5143.52
254.237	7537.96
258.34	11722.5
262.442	13969
266.541	12470.4
270.639	8095.79
274.734	4879.17
278.828	3130.57
282.919	2074.06
287.009	1504.33
291.097	1292.52
295.183	1239.6
299.266	1470.96
303.348	1338.23
307.428	1264.08
311.507	1174.58
315.583	755.746
319.657	664.389
323.729	475.19
327.8	186.427
331.868	35.649
335.935	165.238
339.999	100.557
344.062	199.338
348.123	231.752
352.182	50.849
356.239	85.965
360.294	355.532
364.347	725.995
368.398	1012.41
372.448	1388.81
376.495	1912.19
380.54	2410.59
384.584	2877.01
388.626	3371.42
392.666	4490.23
396.704	5540.36
400.74	6610.23
404.774	7156.19
408.806	7087.36
412.836	6223.73
416.865	5090.32
420.891	3810.12
424.916	2558.14
428.939	2251.39
432.959	1605.86
436.978	1763.57
440.996	1714.52
445.011	1382.7
449.024	1523.03
453.036	1352.51
457.045	1054.16
461.053	1204
465.059	1297.07
469.063	1521.33
473.065	1781.79
477.065	1665.43
481.063	1599.25
485.06	1007.26
489.054	417.457
493.047	272.604
497.038	123.487
501.027	9.057
505.014	50.146
508.999	109.237
512.982	167.531
516.964	78.283
520.944	185.884
524.921	152.946
528.897	432.673
532.871	880.983
536.844	1146.73
540.814	1502.01
544.783	2082.8
548.749	2735.15
552.714	3650.19
556.677	4399.73
560.638	4686.72
564.597	4153.13
568.555	3191.96
572.511	2219.19
576.464	1457.79
580.416	824.756
584.366	473.076
588.315	336.749
592.261	459.769
596.206	289.133
600.148	292.837
604.089	502.878
608.028	757.251
611.965	860.955
615.901	841.984
619.834	1339.34
623.766	1314.01
627.696	1803.99
631.624	1708.28
635.551	1793.88
639.475	1485.84
643.398	1498.97
647.318	1201.46
651.237	1110.26
655.155	1325.78
659.07	1330.47
662.984	1274.15
666.895	1416.51
670.805	1562.85
674.713	1933
678.62	2907.86
682.524	3808.62
686.427	5397.75
690.328	7421.65
694.227	10518.4
698.124	15094.3
702.02	21456.4
705.913	28653.5
709.805	34814.3
713.695	28555.2
717.584	17633.1
721.47	10228.4
725.355	6057.52
729.238	4258.55
733.119	3303.57
736.998	2993.55
740.876	3165.22
744.752	3701.88
748.626	3864.52
752.498	4149.11
756.368	3926.67
760.237	3357.17
764.104	2581.61
767.969	2020.99
771.832	1789.29
775.693	1606.5
779.553	1624.62
783.411	1784.64
787.267	1573.55
791.122	1460.34
794.974	1013.01
798.825	601.535
802.674	415.92
806.522	297.155
810.367	149.166
814.211	55.932
818.053	31.366
821.893	20.38
825.732	87.797
829.568	33.351
833.403	58.749
837.236	191.768
841.068	54.311
844.898	16.497
848.726	121.196
852.552	53.317
856.376	67.752
860.199	152.68
864.02	78.463
867.839	59.15
871.656	157.471
875.472	87.445
879.286	102.13
883.098	210.542
886.909	319.671
890.717	476.524
894.524	501.11
898.33	595.417
902.133	845.471
905.935	1125.24
909.735	1452.74
913.533	1559.97
917.33	1737.98
921.124	1605.71
924.918	1262.15
928.709	1024.47
932.499	1000.19
936.286	825.79
940.073	1199.09
943.857	1321.09
947.64	1233.79
951.421	1477.19
955.2	1443.3
958.978	1641.14
962.753	1485.49
966.527	1379.81
970.3	1208.69
974.071	1081.77
977.84	1240.72
981.607	1193.12
985.372	1284.51
989.136	1166.43
992.898	1064.39
996.659	1084.34
1000.42	1107.31
1004.17	1032.38
1007.93	1025.36
1011.68	1173.55
1015.43	1162.65
1019.18	1175.29
1022.93	1118.72
1026.68	1071.59
1030.42	884.766
1034.17	750.96
1037.91	841.184
1041.65	843.938
1045.39	1032.1
1049.12	1065.24
1052.86	1097.51
1056.59	1159.18
1060.33	1289.82
1064.06	1384.19
1067.78	1485.99
1071.51	1569.4
1075.23	1733.75
1078.96	1900.26
1082.68	2037.55
1086.4	2188.45
1090.12	2104.95
1093.83	1920.2
1097.55	2146.43
1101.26	2043.84
1104.97	2114.54
1108.68	2197.18
1112.39	2234.26
1116.1	2147.52
1119.8	1925.45
1123.5	2019.38
1127.2	1549.7
1130.9	1174.1
1134.6	1128.24
1138.3	963.339
1141.99	526.421
1145.69	375.623
1149.38	193.718
1153.07	119.113
1156.76	2.695
1160.44	139.871
1164.13	19.135
1167.81	107.961
1171.49	48.347
1175.17	84.12
1178.85	55.489
1182.52	91.603
1186.2	48.016
1189.87	102.047
1193.54	182.557
1197.21	29.912
1200.88	57.826
1204.55	191.421
1208.21	69.386
1211.88	87.199
1215.54	7.44
1219.2	156.778
1222.86	45.991
1226.51	101.682
1230.17	123.494
1233.82	99.686
1237.47	145.802
1241.12	133.861
1244.77	101.408
1248.42	119.059
1252.06	108.066
1255.71	113.705
1259.35	3.963
1262.99	54.125
1266.63	233.297
1270.26	32.404
1273.9	102.797
1277.53	103.578
1281.16	95.85
1284.8	113.527
1288.42	229.828
1292.05	132.764
1295.68	108.332
1299.3	30.662
1302.92	122.287
1306.55	211.828
1310.16	115.617
1313.78	132.811
1317.4	20.982
1321.01	26.82
1324.62	22.381
1328.24	271.631
1331.85	39.541
1335.45	54.682
1339.06	58.48
1342.66	149.861
1346.27	153.951
1349.87	202.857
1353.47	281.678
1357.07	466.104
1360.66	403.254
1364.26	157.947
1367.85	179.912
1371.44	176.984
1375.04	179.648
1378.62	244.135
1382.21	293.729
1385.8	231.199
1389.38	202.953
1392.96	258.258
1396.54	419.348
1400.12	180.012
1403.7	201.965
1407.28	185.721
1410.85	98.916
1414.42	330.508
1417.99	219.094
1421.56	413.318
1425.13	108.715
1428.7	113.076
1432.26	94.863
1435.83	297.348
1439.39	370.578
1442.95	274.791
1446.51	336.156
1450.06	325.367
1453.62	243.541
1457.17	395.76
1460.73	338.787
1464.28	49.176
1467.83	71.324
1471.37	137.213
1474.92	97.834
1478.46	125.865
1482.01	158.633
1485.55	224.332
1489.09	65.232
1492.63	128.396
1496.16	109.338
1499.7	41.428
1503.23	0
