Measurement: Raman, 514 nm, ccw, Raman Data Processed
Mineral: Trilithionite
Rruff sample: R040101
Ideal chemistry: KLi_1.5_Al_1.5_(Si_3_Al)O_10_F_2_
Locality: Zambezi Region, Mozambique
Source: University of Arizona Mineral Museum
Description: Aggregate of purple hexagonal plates, polytype is 2M1
Measured chemistry: (K_0.84_Li_0.13_Na_0.02_)(Li_0.54_Al_0.44_Mn_0.02_)_3_(Si_0.82_Al_0.18_)_4_O_10_F_2.00_
Pin_id: L00533
Orientation: Laser parallel to -b* (0 -1 0). Fiducial mark perpendicular to laser is parallel to c [0 0 1]
Raman shift (cm-1)	intensity
119.119	0
123.286	222.594
127.452	255.719
131.615	44.902
135.777	133.881
139.937	35.232
144.094	43.24
148.25	27.672
152.403	145.279
156.555	686.895
160.705	1132.55
164.853	2177.33
168.998	3455.2
173.142	5749.48
177.284	9129.99
181.424	12737.9
185.562	13224.9
189.698	12420.6
193.831	12529.8
197.963	12335.2
202.093	10143.7
206.221	7129.27
210.347	5989.39
214.472	5805.64
218.594	5622.68
222.714	4932.66
226.832	4464.76
230.948	4869.58
235.063	5754.58
239.175	7181.13
243.286	9385.6
247.394	11269.8
251.501	13024.6
255.605	16113.1
259.708	22729.3
263.808	27439.1
267.907	22589.6
272.004	13045.8
276.099	7546.57
280.192	4851.22
284.283	3113.66
288.372	2185.59
292.459	2067.51
296.544	2159.27
300.627	1922.61
304.709	1608.48
308.788	1542.86
312.865	1208.55
316.941	984.424
321.015	902.377
325.086	616.322
329.156	631.404
333.224	515.088
337.29	421.852
341.354	551.221
345.416	334.932
349.476	174.379
353.534	315.82
357.591	545.609
361.645	646.512
365.698	845.111
369.748	1131.43
373.797	1564.24
377.844	2168.54
381.889	1983.32
385.932	2103.58
389.973	2662.31
394.012	2862.48
398.049	3469.05
402.084	4134
406.118	4881.28
410.15	4409.91
414.179	3922.86
418.207	2925.14
422.233	2041.73
426.257	1434.62
430.279	1141.36
434.299	655.834
438.318	633.9
442.334	503.914
446.349	539.459
450.361	390.102
454.372	7.848
458.381	93.592
462.388	58.375
466.394	222.672
470.397	345.359
474.398	587.391
478.398	629.748
482.396	725.418
486.391	145.381
490.385	22.621
494.377	124.975
498.368	375.834
502.356	39.508
506.342	366.246
510.327	158.311
514.31	104.426
518.291	108.158
522.27	14.273
526.247	681.773
530.222	831.732
534.196	1027.91
538.167	1233.56
542.137	1411.78
546.105	1454.27
550.071	2187.04
554.035	3308.07
557.998	3639.4
561.958	4826.93
565.917	2744.55
569.874	1971.28
573.829	1444.1
577.782	640.006
581.733	362.02
585.683	324.146
589.63	326.275
593.576	64.334
597.52	155.326
601.462	62.268
605.402	143.186
609.341	467.088
613.277	434.729
617.212	818.564
621.145	1174.15
625.076	1603.9
629.006	1290.59
632.933	1671.21
636.859	1956.76
640.783	1670.21
644.705	2020.56
648.625	1640.08
652.543	1484.26
656.46	1849.73
660.375	1982.99
664.288	1815.14
668.199	1732.47
672.108	2301.56
676.016	2837.54
679.921	3550.99
683.825	4230.96
687.727	5587.23
691.628	7872.15
695.526	9690.32
699.423	14720
703.318	19292.6
707.211	25558.6
711.102	31280.4
714.992	29369.7
718.879	17142.8
722.765	9658.31
726.649	5969.56
730.532	3708.7
734.412	3295.59
738.291	3080.09
742.168	3844.2
746.043	4068.97
749.916	4289.62
753.788	4737.42
757.658	4438.95
761.526	3409.4
765.392	2712.52
769.257	2692.35
773.119	1790.82
776.98	1284.98
780.839	1678.43
784.697	1357.12
788.552	1422.96
792.406	826.703
796.258	597.086
800.108	447.883
803.957	407.766
807.804	366.898
811.649	91.457
815.492	62.336
819.333	17.816
823.173	24.941
827.011	116.469
830.847	78.746
834.681	199.684
838.514	216.336
842.345	98.688
846.174	166.531
850.001	120.969
853.827	161.535
857.651	186.453
861.473	95.25
865.293	224.641
869.112	123.156
872.928	249.07
876.744	163.633
880.557	303.375
884.369	75.766
888.178	25.191
891.987	10.391
895.793	190.574
899.598	114.508
903.401	195.145
907.202	533.641
911.001	602.93
914.799	742.137
918.595	576.188
922.389	487.98
926.182	706.523
929.972	216.836
933.761	636.906
937.549	708.734
941.334	394.289
945.118	588.57
948.9	1002.6
952.681	543.391
956.459	563.48
960.236	1295.44
964.012	947.879
967.785	1230.81
971.557	1131.56
975.327	1280.31
979.095	1368.45
982.862	1376.79
986.627	856.207
990.39	1213.36
994.152	1708.75
997.912	1823.92
1001.67	1143.35
1005.43	1634.92
1009.18	1828.59
1012.93	1778.31
1016.68	1773.91
1020.43	2174.88
1024.18	2523.07
1027.93	1752.34
1031.67	2204.93
1035.42	1549.67
1039.16	1988.42
1042.9	2747.41
1046.63	3239.43
1050.37	3515.53
1054.11	5042.6
1057.84	4941.22
1061.57	5303.44
1065.3	4973.97
1069.03	3960.56
1072.75	3450.57
1076.47	3239.41
1080.2	2715.77
1083.92	2871.07
1087.64	2347.52
1091.36	2493.78
1095.07	2004.77
1098.79	1824.41
1102.5	2435.83
1106.21	2223.39
1109.92	2483.02
1113.62	2646.65
1117.33	3035.59
1121.04	3368.75
1124.74	3717.91
1128.44	3665
1132.14	4225.01
1135.83	5305.21
1139.53	6181.94
1143.22	6990.99
1146.92	6116.31
1150.61	3955.37
1154.3	2194.54
1157.98	1431.46
1161.67	732.66
1165.35	520.199
1169.04	4.844
1172.72	343.512
1176.4	139.266
1180.07	256.621
1183.75	252.531
1187.42	331.547
1191.1	129.32
1194.77	108.234
1198.44	105.559
1202.1	267.27
1205.77	355.492
1209.43	391.254
1213.1	148.547
1216.76	49.98
1220.42	381.57
1224.07	309.078
1227.73	497.898
1231.38	351.754
1235.04	277.789
1238.69	76.168
1242.34	306.871
1245.99	550.934
1249.63	410.805
1253.28	22.422
1256.92	161.781
1260.56	126.539
1264.2	278.023
1267.84	126.707
1271.48	546.148
1275.11	288.242
1278.74	158.133
1282.38	106.492
1286.01	55.355
1289.63	10.074
1293.26	193.328
1296.89	403.574
1300.51	332.691
1304.13	117.66
1307.75	51.223
1311.37	82.613
1314.99	185.047
1318.6	240.922
1322.22	426.727
1325.83	338.098
1329.44	317.094
1333.05	593.164
1336.66	420.297
1340.26	417.562
1343.87	613.957
1347.47	522.891
1351.07	587.895
1354.67	664.832
1358.27	882.801
1361.86	734.922
1365.46	530.508
1369.05	762.82
1372.64	232.609
1376.23	722.695
1379.82	849.516
1383.41	723.152
1386.99	759.531
1390.57	1193.82
1394.16	549.488
1397.74	929.727
1401.32	1022.86
1404.89	880.836
1408.47	1117.63
1412.04	1157.29
1415.61	699.797
1419.18	985.938
1422.75	750.609
1426.32	767.258
1429.89	1014.8
1433.45	794.891
1437.01	938.84
1440.58	741.973
1444.13	1050.48
1447.69	325.785
1451.25	1053.77
1454.81	950.016
1458.36	972.82
1461.91	800.309
1465.46	938.922
1469.01	1409.34
1472.56	1205.21
1476.1	1019.41
1479.64	849.141
1483.19	1162.67
1486.73	802.574
1490.27	508.309
1493.81	453.082
1497.34	675.703
1500.88	794.816
1504.41	57.648
1507.94	325.988
1511.47	232.996
1515	448.699
1518.53	613.965
1522.05	122.172
1525.57	1.246
