Measurement: Raman, 514 nm, ccw, Raman Data Processed
Mineral: Trilithionite
Rruff sample: R040105
Ideal chemistry: KLi_1.5_Al_1.5_(Si_3_Al)O_10_F_2_
Locality: Brown Derby mine, Ohio City, Gunnison County, Colorado, USA
Source: University of Arizona Mineral Museum
Description: Purple hexagonal tablet
Measured chemistry: (K_0.82_Li_0.14_Na_0.04_)(Li_0.53_Al_0.42_Mn_0.05_)_3_(Si_0.84_Al_0.17_)_4_O_10_((OH)_0.59_F_0.41_)_2_
Pin_id: L01837
Orientation: Laser parallel to -b* (0 -1 0). Fiducial mark perpendicular to laser is parallel to c [0 0 1]
Raman shift (cm-1)	intensity
139.043	0
142.728	0.251953
146.412	31.5098
150.094	82.6211
153.775	105.043
157.455	190.924
161.134	157.09
164.811	324.57
168.486	289.398
172.161	459.025
175.834	1028.59
179.505	1296.4
183.176	1468.93
186.845	1562.85
190.512	949.01
194.178	634.09
197.843	699.213
201.507	634.354
205.169	739.93
208.829	198.951
212.489	223.387
216.147	545.731
219.803	204.053
223.459	328.527
227.112	472.252
230.765	697.275
234.416	854.629
238.066	1130.33
241.714	1420.74
245.361	1673.39
249.007	1941.44
252.651	2187.24
256.294	2550.7
259.936	3167.53
263.576	3254.07
267.215	3014.23
270.852	2615.68
274.488	1757.38
278.123	1687.33
281.756	1199.53
285.388	842.736
289.019	769.307
292.648	866.887
296.276	629.611
299.902	689.223
303.527	664.564
307.151	550.523
310.773	324.016
314.394	337.982
318.013	353.369
321.631	217.135
325.248	258.244
328.864	171.676
332.478	174.41
336.09	326.435
339.701	38.7227
343.311	81.2324
346.92	58.0977
350.527	53.3164
354.132	15.6113
357.737	91.3008
361.34	119.818
364.941	74.6562
368.541	138.016
372.14	59.9492
375.737	224.816
379.333	405.144
382.928	516.168
386.521	518.934
390.113	694.891
393.703	836.09
397.292	749.383
400.88	1166.76
404.466	1135.25
408.051	1188.93
411.634	939.781
415.216	1008.81
418.797	568.016
422.376	557.398
425.954	543.969
429.53	534.727
433.105	692.75
436.679	687.039
440.251	555.574
443.822	730.348
447.391	569.348
450.96	910.57
454.526	592.008
458.091	675.664
461.655	688.527
465.218	645.594
468.779	605.875
472.338	577.352
475.897	726.031
479.454	635.918
483.009	726.008
486.563	364.336
490.116	326.438
493.667	392.848
497.217	266.641
500.765	125.488
504.312	49.582
507.858	195.484
511.402	0.664063
514.945	227.773
518.486	0.738281
522.026	13.8594
525.565	105.394
529.102	102.219
532.638	235.941
536.172	246.84
539.705	312.949
543.236	368.297
546.766	569.012
550.295	640.938
553.822	787.402
557.348	1080.13
560.873	1692.33
564.396	1274.77
567.917	1321.47
571.438	1180.41
574.957	1026.56
578.474	857.062
581.99	652.129
585.504	434.75
589.018	280.941
592.529	94.3164
596.04	140.977
599.549	322.809
603.056	422.824
606.562	251.016
610.067	521.465
613.57	370.234
617.072	451.293
620.572	274.508
624.071	571.871
627.569	233.391
631.065	184.141
634.56	24.1367
638.053	92.2539
641.545	201.602
645.035	288.301
648.524	227.43
652.012	266.125
655.498	122.195
658.983	284.453
662.466	149.742
665.948	369.992
669.428	397.906
672.907	620.047
676.385	609.484
679.861	742.977
683.336	1434.46
686.809	1608.41
690.281	2386.78
693.752	3156.32
697.221	4592.99
700.688	6443.69
704.155	9085.25
707.619	11968
711.083	12731.7
714.545	10785
718.005	6889.84
721.464	4352.55
724.922	2974.53
728.378	2301.16
731.833	1748.22
735.286	1428.81
738.738	1033.4
742.189	1137.67
745.638	1045.18
749.085	801.219
752.531	913.672
755.976	1033.4
759.419	603.719
762.861	525.977
766.302	654.168
769.741	415.43
773.178	412.809
776.614	285.41
780.049	305.312
783.482	464.328
786.914	571.43
790.345	302.938
793.773	50.6836
797.201	362.379
800.627	12.9492
804.052	227.465
807.475	182.738
810.897	317.176
814.317	145.484
817.736	128.66
821.153	85.5547
824.569	43.9648
827.984	106.828
831.397	201.078
834.808	229.012
838.219	8.70312
841.627	288.09
845.035	8.73047
848.441	238.231
851.845	213.93
855.248	554.234
858.65	347.34
862.05	401.195
865.448	62.8477
868.846	302.293
872.241	86.4609
875.636	343.484
879.029	184.344
882.42	145.93
885.81	219.328
889.199	123.516
892.586	264.949
895.971	252.508
899.356	214.012
902.738	154.156
906.12	299.231
909.5	195.18
912.878	281.023
916.255	295.75
919.63	108.356
923.004	6.85547
926.377	121.348
929.748	458.277
933.118	120.453
936.486	491.332
939.853	52.3203
943.218	309.168
946.582	325.984
949.945	189.016
953.306	280.582
956.665	232.082
960.023	127.715
963.38	338.031
966.735	40.2383
970.089	547.375
973.441	484.43
976.792	257.606
980.141	201.629
983.489	678.812
986.836	395.254
990.181	263.191
993.524	453.359
996.866	367.547
1000.21	76.8906
1003.55	433.539
1006.88	195.207
1010.22	306.106
1013.55	329.246
1016.89	390.984
1020.22	374.68
1023.55	71.7344
1026.88	231.535
1030.21	17.25
1033.53	175.519
1036.86	255.785
1040.18	76.3047
1043.5	402.898
1046.82	397.934
1050.14	365.68
1053.46	475.898
1056.78	533.606
1060.09	502.254
1063.4	438.606
1066.71	652.07
1070.02	463.93
1073.33	417.438
1076.64	879.543
1079.94	826.324
1083.25	1083.46
1086.55	1156.72
1089.85	1057.24
1093.15	799.039
1096.45	641.062
1099.75	908.371
1103.04	599.066
1106.34	768.977
1109.63	870.125
1112.92	790.422
1116.21	804.883
1119.5	871.59
1122.78	818.523
1126.07	818.25
1129.35	888.41
1132.63	651.684
1135.92	517.348
1139.19	262.199
1142.47	646.191
1145.75	475.316
1149.02	496.617
1152.3	281.191
1155.57	169.727
1158.84	41.3984
1162.11	39.9062
1165.38	347.934
1168.64	277.344
1171.91	262.875
1175.17	475.523
1178.43	63.3281
1181.69	89.2266
1184.95	283.254
1188.21	495.414
1191.46	383.594
1194.72	416.035
1197.97	187.598
1201.22	471.297
1204.47	287.141
1207.72	468.156
1210.97	172.309
1214.21	203.598
1217.46	290.023
1220.7	86.0508
1223.94	489.055
1227.18	506.164
1230.42	245.285
1233.65	333.457
1236.89	294.59
1240.12	294.551
1243.35	253.578
1246.59	478.664
1249.81	312.816
1253.04	65.0234
1256.27	79.8477
1259.49	83.1719
1262.72	367.664
1265.94	152.359
1269.16	379.266
1272.38	121.219
1275.59	110.766
1278.81	169.242
1282.03	207.414
1285.24	110.062
1288.45	188.109
1291.66	195.883
1294.87	372.996
1298.08	83.8828
1301.28	166.758
1304.48	208.562
1307.69	324.035
1310.89	86.8945
1314.09	287.09
1317.29	458.367
1320.48	387.766
1323.68	732.391
1326.87	596.969
1330.06	395.652
1333.26	838.461
1336.44	837.398
1339.63	633.488
1342.82	412.738
1346	547.812
1349.19	420.473
1352.37	244.129
1355.55	268.832
1358.73	591.07
1361.9	644.398
1365.08	409.391
1368.26	225.309
1371.43	221.086
1374.6	361.75
1377.77	407.582
1380.94	343.019
1384.11	275.379
1387.27	171.012
1390.43	259.723
1393.6	32.5312
1396.76	54.4883
1399.92	293.606
1403.08	93.9648
1406.23	127.676
1409.39	282.977
1412.54	315.066
1415.69	300.856
1418.85	12.8281
1421.99	260.016
1425.14	205.578
1428.29	205.727
1431.43	152.762
1434.58	0
