Measurement: Raman, 514 nm, ccw, Raman Data Processed
Mineral: Triplite
Rruff sample: R050226
Ideal chemistry: Mn^2+^_2_(PO_4_)F
Locality: Fremont County, Colorado, USA
Source: Marcus Origlieri
Description: Reddish brown massive
Measured chemistry: (Mn^2+^_1.20_Mg_0.49_Fe^2+^_0.27_Ca_0.04_)_Σ=2_(P_1.00_O_4_)(F_0.95_(OH)_0.05_)_Σ=1_
Pin_id: L00312
Orientation: Laser parallel to (1 0 1). Fiducial mark perpendicular to laser is parallel to b [0 1 0]
Raman shift (cm-1)	intensity
129.209	0
134.127	533.493
139.043	264.28
143.956	474.469
148.867	359.862
153.775	670.878
158.681	231.137
163.585	53.1504
168.486	551.742
173.385	696.041
178.282	191.332
183.176	208.218
188.067	389.929
192.956	828.992
197.843	1123.1
202.727	1676.63
207.609	130.955
212.489	97.6582
217.366	80.6914
222.24	455.867
227.112	604.926
231.982	15.541
236.849	144.573
241.714	377.332
246.577	287.365
251.437	315.067
256.294	485.755
261.149	264.838
266.002	321.19
270.852	3.85644
275.7	247.082
280.545	380.003
285.388	596.236
290.229	864.753
295.067	1047.42
299.902	1046.55
304.735	599.351
309.566	328.025
314.394	57.4268
319.22	244.964
324.043	91.3691
328.864	48.0879
333.682	64.7734
338.498	47.4766
343.311	78.9473
348.122	51.6475
352.931	29.9111
357.737	83.6016
362.54	24.5117
367.341	6.22949
372.14	46.8887
376.936	20.9541
381.73	85.4062
386.521	172.677
391.31	206.094
396.096	481.432
400.88	531.374
405.661	909.806
410.44	1035.79
415.216	848.922
419.99	668.372
424.761	884.695
429.53	904.042
434.297	939.154
439.061	902.536
443.822	1129.35
448.581	1439.63
453.337	2070.03
458.091	2258.48
462.843	1861.74
467.592	1453.51
472.338	830.366
477.082	542.064
481.824	441.523
486.563	458.573
491.3	499.423
496.034	376.678
500.765	322.51
505.494	265.702
510.221	207.885
514.945	178.204
519.666	49.4902
524.385	65.3984
529.102	72.9062
533.816	0.693359
538.527	91.1797
543.236	229.068
547.943	187.388
552.647	211.764
557.348	263.426
562.047	366.354
566.744	276.326
571.438	515.477
576.129	671.877
580.818	618.823
585.504	598.575
590.188	758.879
594.87	1005.9
599.549	1505.74
604.225	2199
608.899	2211.97
613.57	2068.88
618.239	2079.19
622.905	1589.83
627.569	1237.58
632.23	1223.96
636.889	1324.98
641.545	1014.85
646.198	1249.44
650.849	1260.65
655.498	1154.75
660.144	1067.87
664.787	897.815
669.428	950.021
674.067	767.857
678.703	935.55
683.336	807.479
687.967	872.301
692.595	914.592
697.221	783.631
701.844	887.804
706.465	744.075
711.083	636.184
715.698	436.703
720.311	346.201
724.922	237.821
729.53	305.172
734.135	300.157
738.738	167.315
743.338	142.694
747.936	63.0498
752.531	128.621
757.124	165.515
761.714	200.841
766.302	151.578
770.887	137.331
775.469	21.7393
780.049	255.06
784.626	31.2686
789.201	164.853
793.773	200.945
798.343	168.26
802.91	66.0947
807.475	178.334
812.037	89.0107
816.596	70.9316
821.153	66.1514
825.707	73.1885
830.259	85.2568
834.808	22.9951
839.355	111.428
843.899	91.0039
848.441	22.4287
852.98	115.858
857.516	69.8496
862.05	9.27832
866.581	106.446
871.11	111.889
875.636	87.6885
880.159	159.77
884.68	123.411
889.199	200.319
893.714	207.369
898.228	316.753
902.738	323.959
907.246	371.979
911.752	477.195
916.255	525.446
920.755	702.399
925.253	578.935
929.748	737.099
934.241	859.08
938.731	918.79
943.218	1201.27
947.703	1127.6
952.186	1789.96
956.665	2316.87
961.142	3003.48
965.617	4373.54
970.089	7222.6
974.558	12384.6
979.025	22659.3
983.489	35484
987.951	34743.1
992.41	18265.7
996.866	8266.06
1001.32	4852.75
1005.77	3945.32
1010.22	3202.34
1014.67	2856.14
1019.11	2766.5
1023.55	2833.28
1027.99	2811.5
1032.42	2899.04
1036.86	3236.26
1041.29	3620.5
1045.72	3441.12
1050.14	3160.16
1054.56	2904.57
1058.98	2496.36
1063.4	2351.53
1067.82	2129.15
1072.23	2060.66
1076.64	1999.14
1081.05	1826.25
1085.45	1910.25
1089.85	1659.94
1094.25	1466.55
1098.65	1467.83
1103.04	1388.73
1107.43	1218.15
1111.82	1007.14
1116.21	1227.96
1120.59	1593.11
1124.97	1678.13
1129.35	1630.79
1133.73	1206.01
1138.1	955.59
1142.47	543.586
1146.84	505.943
1151.21	255.66
1155.57	289.734
1159.93	148.127
1164.29	114.064
1168.64	28.877
1172.99	99.1231
1177.34	89.6406
1181.69	32.4121
1186.04	75.6113
1190.38	14.3789
1194.72	91.9981
1199.05	12.5332
1203.39	8.79688
1207.72	2.46484
1212.05	65.0293
1216.37	25.4043
1220.7	83.0547
1225.02	92.7422
1229.34	149.234
1233.65	51.7559
1237.97	288.773
1242.28	138.908
1246.59	14.9219
1250.89	112.203
1255.19	163.406
1259.49	93.9375
1263.79	418.24
1268.09	385.551
1272.38	374.404
1276.67	580.934
1280.95	450.482
1285.24	417.371
1289.52	683.684
1293.8	658.252
1298.08	831.354
1302.35	716.297
1306.62	915.91
1310.89	996.635
1315.15	1052.41
1319.42	1087.41
1323.68	1021.59
1327.94	974.465
1332.19	952.658
1336.44	848.775
1340.69	609.455
1344.94	723.744
1349.19	640.781
1353.43	392.291
1357.67	319.467
1361.9	403.094
1366.14	165.527
1370.37	389.574
1374.6	163.098
1378.83	346.08
1383.05	240.147
1387.27	148.25
1391.49	219.19
1395.7	213.9
1399.92	102.494
1404.13	127.051
1408.34	205.785
1412.54	113.34
1416.74	48.459
1420.94	349.467
1425.14	34.3281
1429.34	195.951
1433.53	133.838
1437.72	218.256
1441.9	3.86719
1446.09	104.463
1450.27	223.633
1454.45	107.139
1458.63	32.2441
1462.8	17.4297
1466.97	41.0605
1471.14	11.3027
1475.31	140.578
1479.47	362.102
1483.63	163.815
1487.79	88.1387
1491.94	303.885
1496.09	251.393
1500.24	78.9356
1504.39	228.221
1508.54	146.539
1512.68	272.668
1516.82	128.621
1520.95	108.002
1525.09	256.152
1529.22	263.315
1533.35	304.025
1537.47	338.367
1541.6	263.975
1545.72	256.799
1549.83	239.738
1553.95	214.701
1558.06	97.207
1562.17	228.383
1566.28	39.9902
1570.38	2.11914
