Measurement: Raman, 514 nm, ccw, Raman Data Processed
Mineral: Triplite
Rruff sample: R050226
Ideal chemistry: Mn^2+^_2_(PO_4_)F
Locality: Fremont County, Colorado, USA
Source: Marcus Origlieri
Description: Reddish brown massive
Measured chemistry: (Mn^2+^_1.20_Mg_0.49_Fe^2+^_0.27_Ca_0.04_)_Σ=2_(P_1.00_O_4_)(F_0.95_(OH)_0.05_)_Σ=1_
Pin_id: L00312
Orientation: Laser parallel to (1 0 1). Fiducial mark perpendicular to laser is parallel to b [0 1 0]
Raman shift (cm-1)	intensity
129.209	0
134.127	388.757
139.043	350.589
143.956	484.9
148.867	509.933
153.775	659.746
158.681	290.435
163.585	142.894
168.486	634.898
173.385	546.412
178.282	440.05
183.176	399.455
188.067	740.756
192.956	896.992
197.843	1078.08
202.727	1581.87
207.609	688.119
212.489	148.305
217.366	43.2607
222.24	51.8174
227.112	239.651
231.982	26.1807
236.849	38.5469
241.714	171.754
246.577	221.663
251.437	183.505
256.294	223.965
261.149	378.201
266.002	384.894
270.852	420.286
275.7	361.234
280.545	275.578
285.388	231.649
290.229	247.935
295.067	416.302
299.902	459.549
304.735	299.984
309.566	324.665
314.394	198.801
319.22	209.09
324.043	87.6094
328.864	132.958
333.682	306.129
338.498	61.8262
343.311	35.3086
348.122	9.68066
352.931	122.398
357.737	19.8096
362.54	25.2646
367.341	7.16797
372.14	21.5908
376.936	95.2783
381.73	82.6953
386.521	26.5547
391.31	159.994
396.096	209.362
400.88	339.661
405.661	618.577
410.44	678.742
415.216	1001.99
419.99	1629.99
424.761	2413.68
429.53	2606.05
434.297	2001.72
439.061	1405.87
443.822	1015.42
448.581	1098.97
453.337	1318.98
458.091	1274.28
462.843	1230.15
467.592	861.735
472.338	615.694
477.082	594.554
481.824	307.997
486.563	232.644
491.3	209.217
496.034	260.319
500.765	185.696
505.494	227.976
510.221	93.1758
514.945	171.629
519.666	46.5674
524.385	32.8955
529.102	129.267
533.816	147.359
538.527	71.8213
543.236	30.752
547.943	51.6562
552.647	33.169
557.348	289.438
562.047	221.268
566.744	276.325
571.438	519.357
576.129	733.731
580.818	981.983
585.504	1049.65
590.188	1366.16
594.87	2130.55
599.549	3315.69
604.225	3828.35
608.899	3515.7
613.57	2800.41
618.239	2518.75
622.905	1984.15
627.569	1524.24
632.23	1347.82
636.889	1046.97
641.545	978.15
646.198	1002.36
650.849	1071.98
655.498	997.045
660.144	1027.07
664.787	846.497
669.428	651.412
674.067	578.224
678.703	457.413
683.336	368.609
687.967	445.198
692.595	341.636
697.221	444.753
701.844	213.746
706.465	197.123
711.083	395.332
715.698	217.27
720.311	253.752
724.922	27.5273
729.53	56.6152
734.135	58.3438
738.738	47.6514
743.338	55.0938
747.936	111.811
752.531	127.133
757.124	23.167
761.714	245.324
766.302	218.215
770.887	236.465
775.469	232.555
780.049	207.147
784.626	281.393
789.201	224.147
793.773	245.762
798.343	260.232
802.91	2.60156
807.475	348.098
812.037	178.018
816.596	166.164
821.153	168.197
825.707	159.91
830.259	234.402
834.808	35.3066
839.355	64.416
843.899	0.822266
848.441	54.2793
852.98	27.3301
857.516	37.834
862.05	208.377
866.581	83.4062
871.11	15.1738
875.636	27.9414
880.159	88.4512
884.68	116.066
889.199	263.084
893.714	72.7891
898.228	87.1973
902.738	262.434
907.246	224.971
911.752	194.408
916.255	141.264
920.755	228.227
925.253	339.805
929.748	302.84
934.241	429.484
938.731	739.561
943.218	644.752
947.703	1061.69
952.186	1277.59
956.665	1730.41
961.142	2705.31
965.617	4236.36
970.089	6865.29
974.558	11899.2
979.025	21197.8
983.489	33137.1
987.951	31761.6
992.41	16752.8
996.866	7537.22
1001.32	4275.38
1005.77	3306.45
1010.22	2955.5
1014.67	2383.21
1019.11	2876.05
1023.55	2743.6
1027.99	2568.69
1032.42	3054.5
1036.86	3188.86
1041.29	3312.17
1045.72	3471.48
1050.14	3330.59
1054.56	3022.03
1058.98	2522.69
1063.4	2315.91
1067.82	2474.34
1072.23	3039.84
1076.64	3434.14
1081.05	3069.53
1085.45	2298.8
1089.85	1887.5
1094.25	1666.83
1098.65	1423
1103.04	1134.61
1107.43	1225.05
1111.82	1175.5
1116.21	974.059
1120.59	1537.69
1124.97	1851.37
1129.35	2054.67
1133.73	2606.41
1138.1	1867.61
1142.47	873.564
1146.84	815.715
1151.21	286.666
1155.57	234.631
1159.93	187.935
1164.29	53.7344
1168.64	112.908
1172.99	198.699
1177.34	153.285
1181.69	518.688
1186.04	273.812
1190.38	59.5449
1194.72	178.996
1199.05	315.932
1203.39	100.272
1207.72	95.332
1212.05	246.018
1216.37	104.607
1220.7	96.9981
1225.02	96.1816
1229.34	249.096
1233.65	9.37695
1237.97	268.82
1242.28	76.7383
1246.59	231.297
1250.89	92.3516
1255.19	79.6602
1259.49	29.127
1263.79	477.103
1268.09	377.078
1272.38	380.74
1276.67	351.207
1280.95	474.59
1285.24	213.94
1289.52	435.272
1293.8	223.66
1298.08	436.648
1302.35	573.672
1306.62	311.227
1310.89	602.562
1315.15	622.477
1319.42	847.914
1323.68	629.496
1327.94	662.051
1332.19	807.965
1336.44	659.277
1340.69	600.32
1344.94	522.984
1349.19	698.106
1353.43	464.773
1357.67	431.953
1361.9	585.914
1366.14	462.379
1370.37	162.641
1374.6	402.273
1378.83	366.441
1383.05	490.441
1387.27	532.894
1391.49	375.231
1395.7	38.5859
1399.92	409.816
1404.13	106.731
1408.34	273.848
1412.54	343.293
1416.74	171.863
1420.94	408.492
1425.14	300.559
1429.34	53.1328
1433.53	60.1758
1437.72	33.707
1441.9	305.055
1446.09	230.785
1450.27	4.83594
1454.45	151.32
1458.63	192.359
1462.8	353.266
1466.97	247.16
1471.14	259.379
1475.31	89.543
1479.47	112.848
1483.63	100.91
1487.79	165.348
1491.94	16.0742
1496.09	212.695
1500.24	306.293
1504.39	472.629
1508.54	16.3867
1512.68	225.816
1516.82	419.305
1520.95	7.60938
1525.09	298.562
1529.22	300.207
1533.35	200.441
1537.47	400.266
1541.6	14.9102
1545.72	421.129
1549.83	510.242
1553.95	305.387
1558.06	295.019
1562.17	235.008
1566.28	312.676
1570.38	1.61719
