Measurement: Raman, 514 nm, ccw, Raman Data Processed
Mineral: Triplite
Rruff sample: R050226
Ideal chemistry: Mn^2+^_2_(PO_4_)F
Locality: Fremont County, Colorado, USA
Source: Marcus Origlieri
Description: Reddish brown massive
Measured chemistry: (Mn^2+^_1.20_Mg_0.49_Fe^2+^_0.27_Ca_0.04_)_Σ=2_(P_1.00_O_4_)(F_0.95_(OH)_0.05_)_Σ=1_
Pin_id: L00312
Orientation: Laser parallel to (1 0 1). Fiducial mark perpendicular to laser is parallel to b [0 1 0]
Raman shift (cm-1)	intensity
129.209	0
134.127	803.096
139.043	719.269
143.956	1683.83
148.867	2456.5
153.775	1877.39
158.681	620.445
163.585	51.6797
168.486	578.797
173.385	851.855
178.282	371.286
183.176	280.708
188.067	946.411
192.956	1299.59
197.843	1809.89
202.727	2909.61
207.609	510.167
212.489	153.088
217.366	764.107
222.24	125.986
227.112	82.2061
231.982	568.261
236.849	5.43652
241.714	6.3916
246.577	119.67
251.437	94.9199
256.294	463.588
261.149	315.518
266.002	435.286
270.852	379.809
275.7	620.661
280.545	620.155
285.388	369.073
290.229	360.393
295.067	390.38
299.902	498.258
304.735	333.754
309.566	376.912
314.394	379.463
319.22	223.907
324.043	276.78
328.864	145.374
333.682	119.001
338.498	88.8574
343.311	239.51
348.122	172.249
352.931	43.6201
357.737	35.6621
362.54	131.091
367.341	71.5234
372.14	18.1045
376.936	44.8398
381.73	63.9385
386.521	51.3662
391.31	1.88281
396.096	195.94
400.88	227.009
405.661	223.374
410.44	299.935
415.216	29.2871
419.99	161.789
424.761	123.61
429.53	252.867
434.297	319.579
439.061	333.126
443.822	412.719
448.581	235.301
453.337	407.338
458.091	312.19
462.843	190.584
467.592	120.289
472.338	197.457
477.082	92.9414
481.824	172.674
486.563	298.777
491.3	361.25
496.034	504.025
500.765	571.24
505.494	674.115
510.221	647.162
514.945	715.979
519.666	445.117
524.385	501.272
529.102	319.084
533.816	363.414
538.527	140.647
543.236	321.889
547.943	441.777
552.647	431.756
557.348	486.871
562.047	609.912
566.744	763.016
571.438	956.92
576.129	939.119
580.818	1039.6
585.504	972.098
590.188	1325.84
594.87	1509.32
599.549	2079.54
604.225	2631.51
608.899	2917.72
613.57	3365.79
618.239	3514.56
622.905	2711.5
627.569	2526.38
632.23	2259.28
636.889	2250.51
641.545	2298.74
646.198	2176.42
650.849	2294.44
655.498	1858.27
660.144	1692.9
664.787	1673.42
669.428	1271.04
674.067	1047.29
678.703	719.385
683.336	618.123
687.967	514.15
692.595	226.334
697.221	368.992
701.844	54.4238
706.465	123.508
711.083	179.435
715.698	136.644
720.311	201.74
724.922	33.209
729.53	2.16016
734.135	158.504
738.738	25.4941
743.338	72.9375
747.936	173.51
752.531	162.408
757.124	212.629
761.714	258.203
766.302	174.547
770.887	220.158
775.469	176.607
780.049	433.75
784.626	576.279
789.201	335.977
793.773	482.518
798.343	401.361
802.91	226.072
807.475	305.34
812.037	359.252
816.596	213.059
821.153	259.18
825.707	162.176
830.259	30.5176
834.808	95.3184
839.355	123.773
843.899	71.1094
848.441	178.978
852.98	34.5215
857.516	65.8398
862.05	109.723
866.581	109.75
871.11	95.416
875.636	86.1699
880.159	70.207
884.68	104.43
889.199	20.8262
893.714	74.5508
898.228	234.451
902.738	37.6875
907.246	217.117
911.752	501.807
916.255	321.883
920.755	431.471
925.253	379.397
929.748	596.469
934.241	701.41
938.731	948.668
943.218	820.191
947.703	1128.47
952.186	1460.11
956.665	1741.33
961.142	2636.23
965.617	3447.39
970.089	5579.89
974.558	9712.35
979.025	17547.8
983.489	27195.3
987.951	26286.8
992.41	14162.9
996.866	6993.06
1001.32	4611.23
1005.77	3676.78
1010.22	3470.06
1014.67	2916.49
1019.11	2941
1023.55	2765.91
1027.99	2960.07
1032.42	3081
1036.86	3396.06
1041.29	3891.47
1045.72	4115.48
1050.14	3786.84
1054.56	3640.75
1058.98	3661.49
1063.4	3639.47
1067.82	4290.96
1072.23	5269.34
1076.64	6208.16
1081.05	5658.47
1085.45	4999.79
1089.85	3760.16
1094.25	2777.27
1098.65	2244.12
1103.04	1905
1107.43	1709.92
1111.82	1625.54
1116.21	1615.4
1120.59	1791.91
1124.97	1858.3
1129.35	1656.25
1133.73	1337.62
1138.1	1050.45
1142.47	839.939
1146.84	439.076
1151.21	417.666
1155.57	416.652
1159.93	198.037
1164.29	275.752
1168.64	22.7793
1172.99	217.053
1177.34	89.5488
1181.69	22.6504
1186.04	28.4082
1190.38	157.522
1194.72	15.0703
1199.05	19.5469
1203.39	117.039
1207.72	83.1465
1212.05	51.4609
1216.37	127.697
1220.7	46.6836
1225.02	85.4394
1229.34	73.4805
1233.65	11.2559
1237.97	108.26
1242.28	113.853
1246.59	354.707
1250.89	178.678
1255.19	236.15
1259.49	430.609
1263.79	480.227
1268.09	354.002
1272.38	572.906
1276.67	339.897
1280.95	701.93
1285.24	460.981
1289.52	671.029
1293.8	664.039
1298.08	873.711
1302.35	942.814
1306.62	1199.99
1310.89	1235.1
1315.15	1210.06
1319.42	1282.68
1323.68	1476.71
1327.94	1300.01
1332.19	1477.65
1336.44	1483.49
1340.69	1267.63
1344.94	1033.49
1349.19	1331
1353.43	1279.43
1357.67	1147.6
1361.9	1347.31
1366.14	1166.33
1370.37	1331.46
1374.6	1176.56
1378.83	1116.33
1383.05	1050.39
1387.27	1082.73
1391.49	926.766
1395.7	809.164
1399.92	723.525
1404.13	606.519
1408.34	689.977
1412.54	351.533
1416.74	448.588
1420.94	381.197
1425.14	371.582
1429.34	454.65
1433.53	361.633
1437.72	211.469
1441.9	355.033
1446.09	36.0117
1450.27	340.988
1454.45	43.6816
1458.63	510.484
1462.8	708.531
1466.97	121.83
1471.14	275.32
1475.31	251.041
1479.47	121.143
1483.63	60.7598
1487.79	220.801
1491.94	238.527
1496.09	76.1465
1500.24	158.91
1504.39	187.406
1508.54	403.428
1512.68	219.123
1516.82	34.1113
1520.95	450.598
1525.09	383.547
1529.22	59.1465
1533.35	234.887
1537.47	373.168
1541.6	48.8594
1545.72	255.25
1549.83	152.147
1553.95	226.326
1558.06	226.234
1562.17	335.088
1566.28	242.629
1570.38	202.592
