Measurement: Raman, 514 nm, ccw, Raman Data Processed
Mineral: Vanadinite
Rruff sample: R050171
Ideal chemistry: Pb_5_(VO_4_)_3_Cl
Locality: Hamburg mine, La Paz County, Arizona, USA
Source: Marcus Origlieri
Description: Red prismatic hexagonal crystals
Measured chemistry: Pb_5.00_((V_0.89_As_0.11_)O_4_)_3_Cl_1.00_
Pin_id: M00426
Orientation: Laser parallel to c* (0 0 1). Fiducial mark perpendicular to laser is parallel to a [1 0 0]
Raman shift (cm-1)	intensity
71.747	0
75.937	253.793
80.125	1444.56
84.311	2610.68
88.496	4135.5
92.678	5818.98
96.858	6392.9
101.036	4724.15
105.212	2962.47
109.387	1788.36
113.559	1313.26
117.729	757.584
121.897	457.691
126.063	354.86
130.228	317.045
134.39	327.803
138.55	582.633
142.709	708.176
146.865	678.373
151.019	897.037
155.171	1014.5
159.322	1017.78
163.47	997.114
167.617	1027.48
171.761	1023.49
175.904	997.017
180.044	881.172
184.183	729.783
188.319	683.326
192.454	577.891
196.586	446.275
200.717	387.98
204.846	320.412
208.972	160.449
213.097	96.031
217.22	5.943
221.341	23.596
225.46	72.111
229.577	139.908
233.692	103.528
237.805	234.531
241.916	137.027
246.025	91.315
250.132	37.902
254.237	42.012
258.34	21.336
262.442	97.691
266.541	132.827
270.639	151.94
274.734	328.018
278.828	466.82
282.919	524.373
287.009	612.425
291.097	770.555
295.183	908.407
299.266	1042.35
303.348	1167.41
307.428	1444.49
311.507	1802.68
315.583	2160.5
319.657	2755.81
323.729	3349.84
327.8	3941.11
331.868	4143.39
335.935	4151.65
339.999	3920.25
344.062	3997.54
348.123	4452.27
352.182	5144.87
356.239	5072.5
360.294	4223.55
364.347	3480.04
368.398	2861.21
372.448	2423.08
376.495	2249.04
380.54	2104.61
384.584	2067.72
388.626	1943.11
392.666	1806.35
396.704	1814.21
400.74	1779.59
404.774	1751.6
408.806	1829.49
412.836	1787.05
416.865	1742.3
420.891	1633.86
424.916	1351.15
428.939	1184.45
432.959	1024.6
436.978	842.443
440.996	720.074
445.011	675.778
449.024	676.053
453.036	585.721
457.045	542.741
461.053	503.131
465.059	441.41
469.063	413.123
473.065	336.68
477.065	346.113
481.063	353.466
485.06	327.783
489.054	249.162
493.047	232.565
497.038	240.037
501.027	205.602
505.014	195.764
508.999	179.077
512.982	131.034
516.964	169.169
520.944	92.517
524.921	125.089
528.897	115.928
532.871	8.086
536.844	43.56
540.814	34.478
544.783	23.917
548.749	2.041
552.714	33.329
556.677	29.826
560.638	12.555
564.597	42.1
568.555	60.956
572.511	15.064
576.464	19.377
580.416	53.898
584.366	18.707
588.315	33.817
592.261	84.263
596.206	29.84
600.148	55.608
604.089	89.63
608.028	31.944
611.965	13.462
615.901	5.803
619.834	7.68
623.766	14.724
627.696	20.277
631.624	49.531
635.551	76.038
639.475	26.835
643.398	35.771
647.318	26.099
651.237	40.063
655.155	130.106
659.07	71.026
662.984	95.994
666.895	117.038
670.805	277.91
674.713	268.171
678.62	293.964
682.524	396.474
686.427	439.762
690.328	587.521
694.227	633.385
698.124	776.693
702.02	884.02
705.913	1052.23
709.805	1361.38
713.695	1620.3
717.584	1968.58
721.47	2361.05
725.355	2659.25
729.238	2997.84
733.119	3203.8
736.998	3493.27
740.876	3780.18
744.752	4284.62
748.626	4867.92
752.498	5542.33
756.368	6392.9
760.237	7412.5
764.104	8838.15
767.969	10156.4
771.832	11925.2
775.693	13874.3
779.553	15983.8
783.411	18193.9
787.267	20464.5
791.122	22295.6
794.974	23517.1
798.825	24659
802.674	26421.4
806.522	28494.3
810.367	31277.7
814.211	35191.6
818.053	39036
821.893	41091
825.732	43006.4
829.568	41492.5
833.403	37278.9
837.236	32095.8
841.068	26273.4
844.898	21162.1
848.726	16822.7
852.552	13514.6
856.376	10509.3
860.199	8426.85
864.02	7004.17
867.839	5841.62
871.656	4888.04
875.472	4264.52
879.286	3704.86
883.098	3338.3
886.909	2960.03
890.717	2619.76
894.524	2495.33
898.33	2347.91
902.133	2117.84
905.935	1910.92
909.735	1831.66
913.533	1659.81
917.33	1407.65
921.124	1418.88
924.918	1251
928.709	1115.96
932.499	926.258
936.286	805.893
940.073	741.86
943.857	591.294
947.64	607.534
951.421	512.246
955.2	371.709
958.978	274.572
962.753	258.264
966.527	197.056
970.3	116.567
974.071	89.599
977.84	39.503
981.607	6.809
985.372	21.167
989.136	10.291
992.898	5.555
996.659	9.476
1000.42	8.876
1004.17	22.084
1007.93	89.528
1011.68	50.848
1015.43	18.41
1019.18	39.134
1022.93	11.113
1026.68	80.344
1030.42	77.838
1034.17	59.363
1037.91	39.912
1041.65	8.688
1045.39	2.525
1049.12	0.329
1052.86	19.913
1056.59	46.184
1060.33	12.491
1064.06	63.786
1067.78	83.075
1071.51	98.377
1075.23	47.679
1078.96	114.969
1082.68	61.248
1086.4	86.509
1090.12	50.755
1093.83	118.124
1097.55	91.282
1101.26	70.372
1104.97	63.745
1108.68	29.522
1112.39	74.649
1116.1	25.6
1119.8	106.577
1123.5	139.366
1127.2	96.059
1130.9	84.538
1134.6	75.119
1138.3	100.243
1141.99	81.927
1145.69	111.984
1149.38	110.949
1153.07	148.455
1156.76	168.953
1160.44	43.705
1164.13	52.348
1167.81	91.192
1171.49	70.608
1175.17	106.094
1178.85	119.433
1182.52	117.827
1186.2	137.886
1189.87	114.655
1193.54	91.528
1197.21	93.226
1200.88	112.014
1204.55	177.243
1208.21	146.697
1211.88	185.469
1215.54	166.346
1219.2	172.777
1222.86	118.943
1226.51	157.959
1230.17	167.939
1233.82	144.892
1237.47	125.72
1241.12	189.562
1244.77	129.482
1248.42	90.633
1252.06	33.791
1255.71	93.398
1259.35	84.527
1262.99	102.362
1266.63	51.519
1270.26	170.723
1273.9	100.018
1277.53	49.939
1281.16	20.472
1284.8	27.401
1288.42	8.155
1292.05	15.891
1295.68	4.225
1299.3	25.168
1302.92	31.285
1306.55	2.323
1310.16	10.808
1313.78	63.903
1317.4	26.561
1321.01	6.232
1324.62	10.547
1328.24	2.393
1331.85	23.775
1335.45	4.136
1339.06	46.726
1342.66	64.211
1346.27	16.22
1349.87	11.716
1353.47	18.42
1357.07	17.529
1360.66	17.219
1364.26	26.381
1367.85	66.89
1371.44	31.914
1375.04	30.449
1378.62	51.284
1382.21	42.325
1385.8	49.248
1389.38	23.016
1392.96	35.449
1396.54	0.063
1400.12	42.604
1403.7	58.167
1407.28	106.522
1410.85	114.891
1414.42	85.262
1417.99	117.375
1421.56	69.993
1425.13	49.742
1428.7	17.055
1432.26	77.021
1435.83	60.939
1439.39	57.319
1442.95	75.988
1446.51	80.153
1450.06	94.619
1453.62	93.677
1457.17	79.534
1460.73	53.627
1464.28	55.848
1467.83	38.502
1471.37	59.991
1474.92	70.938
1478.46	47.968
1482.01	20.795
1485.55	67.421
1489.09	83.997
1492.63	67.048
1496.16	107.354
1499.7	117.358
1503.23	38.139
1506.76	98.381
1510.29	12.287
1513.82	1.204
1517.35	23.753
1520.88	61.043
1524.4	0
