Measurement: Raman, 514 nm, ccw, Raman Data Processed
Mineral: Vanadinite
Rruff sample: R050171
Ideal chemistry: Pb_5_(VO_4_)_3_Cl
Locality: Hamburg mine, La Paz County, Arizona, USA
Source: Marcus Origlieri
Description: Red prismatic hexagonal crystals
Measured chemistry: Pb_5.00_((V_0.89_As_0.11_)O_4_)_3_Cl_1.00_
Pin_id: M00093
Orientation: Laser parallel to -a* (-1 0 0). Fiducial mark perpendicular to laser is parallel to -c [0 0 -1]
Raman shift (cm-1)	intensity
71.747	0
75.937	425.241
80.125	2263.69
84.311	3119.9
88.496	5129.57
92.678	7483.19
96.858	8014.21
101.036	6797.94
105.212	4526.81
109.387	3154.03
113.559	2261.27
117.729	1658.57
121.897	1231.83
126.063	923.312
130.228	1014.27
134.39	974.762
138.55	1080.79
142.709	1148.15
146.865	937.598
151.019	982.089
155.171	1218.81
159.322	1089.05
163.47	1169.8
167.617	1183.22
171.761	1182.55
175.904	1124.8
180.044	1003.39
184.183	870.22
188.319	738.358
192.454	584.88
196.586	574.487
200.717	498.721
204.846	323.179
208.972	258.855
213.097	146.273
217.22	31.859
221.341	15.593
225.46	82.94
229.577	83.585
233.692	156.189
237.805	217.352
241.916	192.704
246.025	189.89
250.132	208.74
254.237	158.345
258.34	124.89
262.442	8.105
266.541	44.647
270.639	178.234
274.734	292.573
278.828	376.501
282.919	524.573
287.009	638.6
291.097	885.485
295.183	1021.87
299.266	1190.05
303.348	1490.18
307.428	1885.97
311.507	2357.59
315.583	3188.42
319.657	4034.63
323.729	4872.8
327.8	5431.65
331.868	5520.6
335.935	5274.71
339.999	4772.7
344.062	4860.07
348.123	5248.74
352.182	6079.16
356.239	6109.97
360.294	5076.06
364.347	4075.67
368.398	3392.65
372.448	2868.09
376.495	2594.22
380.54	2494.78
384.584	2507.98
388.626	2447.07
392.666	2259.11
396.704	2183.69
400.74	2046.69
404.774	2013.68
408.806	2056.57
412.836	2044.78
416.865	2111.65
420.891	1979.22
424.916	1608.87
428.939	1380.39
432.959	1091.02
436.978	985.726
440.996	876.633
445.011	764.371
449.024	684.758
453.036	638.293
457.045	542.038
461.053	494.457
465.059	448.643
469.063	405.65
473.065	356.44
477.065	386.957
481.063	340.317
485.06	327.555
489.054	299.717
493.047	241.846
497.038	234.96
501.027	149.084
505.014	187.19
508.999	193.311
512.982	164.461
516.964	158.647
520.944	167.867
524.921	134.112
528.897	93.417
532.871	60.792
536.844	68.23
540.814	19.802
544.783	51.52
548.749	10.583
552.714	47.872
556.677	31.873
560.638	47.24
564.597	74.961
568.555	27.01
572.511	22.289
576.464	68.752
580.416	8.669
584.366	52.011
588.315	57.071
592.261	39.623
596.206	38.735
600.148	38.371
604.089	7.47
608.028	21.691
611.965	18.619
615.901	49.545
619.834	61.767
623.766	8.034
627.696	4.306
631.624	105.384
635.551	97.382
639.475	57.813
643.398	87.365
647.318	87.252
651.237	98.402
655.155	143.591
659.07	131.377
662.984	170.472
666.895	181.701
670.805	233.808
674.713	297.847
678.62	288.831
682.524	388.887
686.427	561.641
690.328	654.221
694.227	743.936
698.124	874.547
702.02	994.136
705.913	1187.13
709.805	1579.54
713.695	1805.71
717.584	2291
721.47	2725.48
725.355	3146.41
729.238	3448.55
733.119	3647.62
736.998	4068.08
740.876	4538.4
744.752	4956.63
748.626	5607.88
752.498	6421.14
756.368	7251.88
760.237	8553.13
764.104	10188
767.969	11683.1
771.832	13619.1
775.693	15665.6
779.553	18282.5
783.411	20859.9
787.267	23557.8
791.122	26296.3
794.974	28365.3
798.825	29614.9
802.674	31664.9
806.522	34025.6
810.367	36966.8
814.211	41298.6
818.053	45861.1
821.893	48344.1
825.732	50907.7
829.568	49461.9
833.403	45106.8
837.236	38642.2
841.068	31618.9
844.898	25516.7
848.726	20568.7
852.552	16473.6
856.376	12776.8
860.199	10244.8
864.02	8414.49
867.839	6875.73
871.656	5829.37
875.472	5144.1
879.286	4527.86
883.098	3944.14
886.909	3495.42
890.717	3169.77
894.524	2856.04
898.33	2696.51
902.133	2548.39
905.935	2359.54
909.735	2088.23
913.533	2061.44
917.33	1799.06
921.124	1770.12
924.918	1538.85
928.709	1413.4
932.499	1247.27
936.286	984.994
940.073	867.11
943.857	738.055
947.64	706.082
951.421	556.62
955.2	527.746
958.978	354.048
962.753	384.677
966.527	300.965
970.3	184.698
974.071	150.109
977.84	117.696
981.607	57.835
985.372	9.128
989.136	0.062
992.898	67.034
996.659	13.245
1000.42	109.923
1004.17	32.464
1007.93	37.978
1011.68	94.942
1015.43	44.458
1019.18	45.154
1022.93	6.722
1026.68	63.331
1030.42	21.068
1034.17	31.813
1037.91	53.546
1041.65	32.472
1045.39	14.461
1049.12	38.376
1052.86	39.345
1056.59	6.372
1060.33	40.414
1064.06	53.488
1067.78	71.584
1071.51	51.691
1075.23	114.787
1078.96	85.85
1082.68	88.886
1086.4	120.241
1090.12	109.836
1093.83	90.716
1097.55	129.586
1101.26	105.257
1104.97	77.822
1108.68	47.093
1112.39	28.818
1116.1	58.13
1119.8	114.981
1123.5	143.422
1127.2	109.274
1130.9	96.565
1134.6	112.874
1138.3	63.511
1141.99	138.972
1145.69	87.862
1149.38	103.444
1153.07	150.078
1156.76	101.003
1160.44	102.281
1164.13	150.057
1167.81	141.05
1171.49	135.903
1175.17	154.466
1178.85	171.872
1182.52	189.2
1186.2	154.273
1189.87	153.869
1193.54	128.832
1197.21	121.166
1200.88	160.217
1204.55	189.34
1208.21	192.965
1211.88	174.424
1215.54	191.371
1219.2	133.593
1222.86	122.223
1226.51	166.092
1230.17	148.339
1233.82	209.115
1237.47	202.542
1241.12	207.826
1244.77	164.524
1248.42	182.54
1252.06	127.715
1255.71	104.082
1259.35	150.807
1262.99	137.104
1266.63	79.168
1270.26	71.847
1273.9	74.044
1277.53	10.31
1281.16	50.161
1284.8	50.931
1288.42	2.552
1292.05	30.588
1295.68	50.662
1299.3	52.136
1302.92	1.771
1306.55	1.885
1310.16	13.434
1313.78	32.845
1317.4	22.822
1321.01	13.911
1324.62	54.932
1328.24	54.219
1331.85	105.11
1335.45	37.855
1339.06	58.243
1342.66	28.71
1346.27	17.751
1349.87	36.281
1353.47	1.092
1357.07	29.52
1360.66	31.248
1364.26	27.817
1367.85	79.782
1371.44	33.88
1375.04	69.301
1378.62	47.282
1382.21	48.225
1385.8	51.498
1389.38	52.566
1392.96	65.432
1396.54	80.691
1400.12	75.465
1403.7	112.602
1407.28	161.929
1410.85	99.609
1414.42	114.76
1417.99	68.373
1421.56	83.128
1425.13	19.388
1428.7	44.906
1432.26	68.878
1435.83	42.08
1439.39	29.564
1442.95	99.141
1446.51	88.886
1450.06	77.251
1453.62	45.593
1457.17	62.072
1460.73	92.727
1464.28	30.402
1467.83	52.981
1471.37	40.786
1474.92	47.748
1478.46	80.18
1482.01	68.122
1485.55	91.003
1489.09	106.006
1492.63	150.639
1496.16	91.007
1499.7	106.93
1503.23	21.823
1506.76	32.489
1510.29	38.51
1513.82	39.583
1517.35	44.656
1520.88	0
