Measurement: Raman, 514 nm, ccw, Raman Data Processed
Mineral: Vanadinite
Rruff sample: R050171
Ideal chemistry: Pb_5_(VO_4_)_3_Cl
Locality: Hamburg mine, La Paz County, Arizona, USA
Source: Marcus Origlieri
Description: Red prismatic hexagonal crystals
Measured chemistry: Pb_5.00_((V_0.89_As_0.11_)O_4_)_3_Cl_1.00_
Pin_id: M00426
Orientation: Laser parallel to c* (0 0 1). Fiducial mark perpendicular to laser is parallel to a [1 0 0]
Raman shift (cm-1)	intensity
74.54	0
78.729	803.703
82.916	1593.7
87.101	3202.87
91.284	5085.16
95.465	6388.33
99.644	5253.74
103.82	3364.66
107.995	1703.24
112.168	871.437
116.339	571.56
120.508	89.224
124.675	19.921
128.84	21.414
133.003	77.644
137.164	174.196
141.323	356.844
145.48	354.683
149.635	611.625
153.788	785.327
157.939	912.102
162.088	956.229
166.235	954.22
170.38	969.793
174.523	1008.55
178.664	870.127
182.803	762.088
186.94	690.384
191.076	603.23
195.209	478.653
199.34	388.195
203.47	296.372
207.597	236.89
211.722	33.624
215.846	34.417
219.967	41.118
224.087	94.452
228.204	66.637
232.32	113.866
236.434	89.03
240.545	125.887
244.655	140.806
248.763	68.244
252.869	35.532
256.973	15.019
261.075	125.771
265.175	163.334
269.273	298.353
273.369	412.756
277.463	553.431
281.556	589.648
285.646	776.058
289.734	905.228
293.821	995.676
297.905	1156.14
301.988	1304.64
306.069	1482.7
310.147	1717.21
314.224	2138.89
318.299	2650.07
322.372	3124.46
326.443	3864.06
330.512	4334.89
334.579	4374.29
338.645	4251.59
342.708	4130.02
346.769	4714.5
350.829	5349.98
354.887	5626.54
358.942	4874.69
362.996	3955.54
367.048	3156.58
371.098	2803.94
375.146	2438.3
379.192	2301.47
383.236	2181.44
387.279	2123.64
391.319	2065.77
395.358	1946.04
399.394	1876.5
403.429	1838.17
407.462	1931.08
411.493	1932.01
415.522	1870.93
419.549	1756.96
423.575	1573.86
427.598	1313.66
431.619	1171.46
435.639	990.344
439.657	898.325
443.673	809.932
447.687	679.974
451.699	643.037
455.709	540.387
459.717	567.27
463.724	520.352
467.728	464.858
471.731	394.301
475.732	403.262
479.731	372.226
483.728	322.296
487.723	325.782
491.716	277.215
495.708	264.625
499.697	245.043
503.685	192.492
507.671	208.001
511.655	198.613
515.637	152.356
519.617	177.266
523.596	108.394
527.572	103.774
531.547	99.458
535.52	38.514
539.491	83.032
543.46	48.062
547.427	38.751
551.393	14.705
555.356	34.315
559.318	1.067
563.278	7.875
567.236	34.745
571.192	44.722
575.147	52.691
579.099	30.396
583.05	52.178
586.999	28.314
590.946	74.749
594.891	34.57
598.834	5.803
602.776	2.098
606.715	23.041
610.653	5.788
614.589	22.896
618.523	10.301
622.456	24.191
626.386	10.666
630.315	21.556
634.242	15.76
638.167	59.706
642.09	28.083
646.012	64.336
649.931	41.43
653.849	57.508
657.765	99.544
661.679	86.207
665.592	130.131
669.502	126.133
673.411	258.828
677.318	286.131
681.223	348.442
685.126	403.862
689.028	442.569
692.927	599.409
696.825	785.188
700.721	879.588
704.616	1085.53
708.508	1289.62
712.399	1619.47
716.288	1970.03
720.175	2325.15
724.06	2623.15
727.944	2958.69
731.825	3258.83
735.705	3574.76
739.584	3921.34
743.46	4178.17
747.334	4733.86
751.207	5502.01
755.078	6404.38
758.947	7350.41
762.815	8716.86
766.68	10163.2
770.544	11702.7
774.406	13682.4
778.267	15992.6
782.125	18042.9
785.982	20314
789.837	22659.6
793.69	24047.3
797.542	25829.3
801.391	27262.3
805.239	29395.7
809.085	31199.6
812.93	34864
816.772	38448.9
820.613	42364.3
824.452	44180.3
828.29	43716.7
832.125	39783.8
835.959	34791.2
839.791	28750.1
843.621	23181
847.45	18423.1
851.277	14524.5
855.102	11559.7
858.925	9289.9
862.746	7556.13
866.566	6325.68
870.384	5396.88
874.2	4612.03
878.015	3893.62
881.828	3446.82
885.639	3201.57
889.448	2928.89
893.256	2608.96
897.061	2427.68
900.865	2179.76
904.668	2018.25
908.468	1987.55
912.267	1681.35
916.064	1590.34
919.86	1515.72
923.653	1198.54
927.445	1089.63
931.236	1047.06
935.024	943.897
938.811	780.986
942.596	619.457
946.379	504.787
950.161	501.85
953.94	414.187
957.719	331.865
961.495	278.724
965.27	213.513
969.043	126.971
972.814	90.149
976.583	40.665
980.351	68.209
984.117	20.51
987.882	38.068
991.644	46.619
995.405	35.797
999.165	11.549
1002.92	37.153
1006.68	43.035
1010.43	28.41
1014.18	82.978
1017.93	35.454
1021.68	49.759
1025.43	19.352
1029.18	26.843
1032.92	2.95
1036.66	66.808
1040.4	28.786
1044.14	13.805
1047.88	56.205
1051.62	57.251
1055.35	72.287
1059.08	28.361
1062.81	64.473
1066.54	47.616
1070.27	43.77
1073.99	69.949
1077.72	103.133
1081.44	82.586
1085.16	85.511
1088.88	70.667
1092.59	41.783
1096.31	69.865
1100.02	77.047
1103.73	92.137
1107.44	86.282
1111.15	59.091
1114.86	24.853
1118.57	74.819
1122.27	63.237
1125.97	99.158
1129.67	93.681
1133.37	74.128
1137.07	108.564
1140.76	56.699
1144.45	112.155
1148.15	135.383
1151.84	133.175
1155.53	106.884
1159.21	143.796
1162.9	132.615
1166.58	74.472
1170.26	72.658
1173.94	104.925
1177.62	74.87
1181.3	83.041
1184.97	108.529
1188.65	128.88
1192.32	92.666
1195.99	121.853
1199.66	115.867
1203.33	155.128
1206.99	174.856
1210.65	151.859
1214.32	135.7
1217.98	130.914
1221.64	137.627
1225.29	153.485
1228.95	149.759
1232.6	175.691
1236.26	130.234
1239.91	123.068
1243.56	132.724
1247.2	103.573
1250.85	109.435
1254.49	131.092
1258.13	130.544
1261.78	85.506
1265.41	59.952
1269.05	31.074
1272.69	61.802
1276.32	62.389
1279.95	18.032
1283.59	42.369
1287.21	80.283
1290.84	30.812
1294.47	10.857
1298.09	3.059
1301.72	18.926
1305.34	17.77
1308.96	25.765
1312.58	24.018
1316.19	9.348
1319.81	57.791
1323.42	1.124
1327.03	5.794
1330.64	36.209
1334.25	30.153
1337.86	3.992
1341.46	33.091
1345.07	16.306
1348.67	66.516
1352.27	30.388
1355.87	45.681
1359.46	15.456
1363.06	1.276
1366.65	23.491
1370.25	20.033
1373.84	21.753
1377.43	26.129
1381.02	43.817
1384.6	71.258
1388.18	68.781
1391.77	79.259
1395.35	68.219
1398.93	18.751
1402.51	101.874
1406.08	84.802
1409.66	100.957
1413.23	74.207
1416.8	98.525
1420.37	77.996
1423.94	75.687
1427.51	111.701
1431.08	96.287
1434.64	121.423
1438.2	91.557
1441.76	37.734
1445.32	36.628
1448.88	18.827
1452.43	16.805
1455.99	91.207
1459.54	51.398
1463.09	119.058
1466.64	94.407
1470.19	53.266
1473.74	78.959
1477.28	41.89
1480.83	55.107
1484.37	8.647
1487.91	34.643
1491.45	55.229
1494.98	26.362
1498.52	46.672
1502.05	39.95
1505.59	51.689
1509.12	51.549
1512.65	72.557
1516.17	62.712
1519.7	1.792
