Measurement: Raman, 514 nm, ccw, Raman Data Processed
Mineral: Vanadinite
Rruff sample: R050171
Ideal chemistry: Pb_5_(VO_4_)_3_Cl
Locality: Hamburg mine, La Paz County, Arizona, USA
Source: Marcus Origlieri
Description: Red prismatic hexagonal crystals
Measured chemistry: Pb_5.00_((V_0.89_As_0.11_)O_4_)_3_Cl_1.00_
Pin_id: M00426
Orientation: Laser parallel to c* (0 0 1). Fiducial mark perpendicular to laser is parallel to a [1 0 0]
Raman shift (cm-1)	intensity
71.747	0
75.937	327.472
80.125	1284.46
84.311	2415.37
88.496	3995.86
92.678	5884.04
96.858	6111.6
101.036	5055.77
105.212	3017.53
109.387	1716.33
113.559	1235.06
117.729	829.556
121.897	408.366
126.063	253.797
130.228	245.125
134.39	317.018
138.55	397.155
142.709	485.2
146.865	676.308
151.019	843.974
155.171	926.959
159.322	1034.48
163.47	1023.2
167.617	959.3
171.761	944.378
175.904	901.083
180.044	838.202
184.183	738.299
188.319	658.015
192.454	564.539
196.586	401.824
200.717	278.803
204.846	202.609
208.972	104.991
213.097	2.492
217.22	43.992
221.341	79.702
225.46	133.774
229.577	153.473
233.692	226.609
237.805	175.618
241.916	172.253
246.025	86.117
250.132	18.945
254.237	46.864
258.34	65.472
262.442	150.65
266.541	95.449
270.639	214.702
274.734	380.347
278.828	438.305
282.919	588.874
287.009	780.182
291.097	873.915
295.183	951.204
299.266	1092.51
303.348	1185.13
307.428	1415.41
311.507	1785.98
315.583	2154.98
319.657	2674.56
323.729	3224.24
327.8	3887.44
331.868	4198.02
335.935	4072.01
339.999	3911.52
344.062	4010.49
348.123	4632.91
352.182	5232.84
356.239	5218.59
360.294	4259.04
364.347	3481.56
368.398	2878.31
372.448	2554.93
376.495	2224.06
380.54	2093.25
384.584	2081.71
388.626	2026.91
392.666	1913.66
396.704	1831.65
400.74	1816.46
404.774	1712.18
408.806	1859.76
412.836	1821.59
416.865	1792.3
420.891	1633.79
424.916	1397.14
428.939	1165.69
432.959	1001.06
436.978	874.212
440.996	792.993
445.011	738.427
449.024	627.923
453.036	625.453
457.045	503.5
461.053	454.125
465.059	433.357
469.063	449.018
473.065	371.731
477.065	324.308
481.063	334.663
485.06	266.917
489.054	256.109
493.047	254.28
497.038	252.572
501.027	211.797
505.014	215.098
508.999	169.507
512.982	193.053
516.964	153.771
520.944	160.662
524.921	119.88
528.897	83.358
532.871	60.165
536.844	28.367
540.814	18.988
544.783	5.927
548.749	24.795
552.714	19.356
556.677	6.789
560.638	2.726
564.597	20.295
568.555	38.916
572.511	52.705
576.464	42.729
580.416	19.985
584.366	53.493
588.315	3.373
592.261	62.544
596.206	27.11
600.148	37.314
604.089	8.559
608.028	7.864
611.965	18.944
615.901	50.016
619.834	25.207
623.766	17.894
627.696	52.323
631.624	11.504
635.551	30.126
639.475	49.465
643.398	57.688
647.318	54.818
651.237	10.122
655.155	75.103
659.07	52.307
662.984	124.448
666.895	136.357
670.805	219.663
674.713	221.891
678.62	280.615
682.524	392.889
686.427	466.233
690.328	549.493
694.227	616.017
698.124	728.503
702.02	838.179
705.913	1081.1
709.805	1353.41
713.695	1554.29
717.584	1935.71
721.47	2338.69
725.355	2623.35
729.238	2953.86
733.119	3094.58
736.998	3461.79
740.876	3851.45
744.752	4266.56
748.626	4759.84
752.498	5386.46
756.368	6199.22
760.237	7423.69
764.104	8802.46
767.969	10090.1
771.832	11729.6
775.693	13709
779.553	15889.3
783.411	17909
787.267	20210.5
791.122	22082.5
794.974	23354.9
798.825	24427.8
802.674	26201.1
806.522	28014.8
810.367	31079.1
814.211	34873.9
818.053	38689.2
821.893	40614.9
825.732	42721.2
829.568	40997.9
833.403	37005.1
837.236	31722.9
841.068	25861.8
844.898	20811.8
848.726	16616.8
852.552	12935.2
856.376	10383.4
860.199	8382.3
864.02	6930.35
867.839	5700.49
871.656	4743.26
875.472	4130.81
879.286	3676.53
883.098	3268.54
886.909	2860.54
890.717	2585.43
894.524	2319.4
898.33	2192.27
902.133	2060.6
905.935	1912.35
909.735	1725.41
913.533	1714.94
917.33	1405.89
921.124	1375.11
924.918	1286.69
928.709	1054.62
932.499	968.878
936.286	782.49
940.073	679.42
943.857	542.3
947.64	506.994
951.421	506.322
955.2	300.426
958.978	263.254
962.753	247.217
966.527	174.436
970.3	130.068
974.071	165.786
977.84	82.649
981.607	45.659
985.372	45.361
989.136	27.027
992.898	41.081
996.659	80.839
1000.42	44.306
1004.17	28.541
1007.93	76.113
1011.68	45.758
1015.43	1.313
1019.18	28.501
1022.93	9.97
1026.68	28.943
1030.42	13.898
1034.17	37.728
1037.91	27.701
1041.65	12.226
1045.39	37.132
1049.12	17.054
1052.86	78.031
1056.59	48.053
1060.33	31.109
1064.06	33.214
1067.78	75.335
1071.51	84.48
1075.23	123.637
1078.96	86.787
1082.68	74.929
1086.4	84.073
1090.12	57.218
1093.83	73.294
1097.55	63.413
1101.26	23.706
1104.97	106.899
1108.68	65.912
1112.39	12.709
1116.1	11.588
1119.8	92.533
1123.5	84.848
1127.2	123.096
1130.9	69.49
1134.6	120.959
1138.3	83.685
1141.99	80.711
1145.69	80.875
1149.38	67.797
1153.07	143.365
1156.76	141.622
1160.44	112.728
1164.13	82.942
1167.81	76.893
1171.49	81.144
1175.17	93.85
1178.85	116.134
1182.52	128.115
1186.2	144.527
1189.87	124.584
1193.54	109.314
1197.21	126.912
1200.88	110.88
1204.55	140.907
1208.21	147.401
1211.88	221.328
1215.54	150.549
1219.2	173.298
1222.86	185.763
1226.51	163.248
1230.17	172.657
1233.82	132.996
1237.47	134.075
1241.12	121.534
1244.77	127.975
1248.42	141.293
1252.06	89.965
1255.71	129.748
1259.35	110
1262.99	100.342
1266.63	106.376
1270.26	57.352
1273.9	69.833
1277.53	66.534
1281.16	75.018
1284.8	25.615
1288.42	52.015
1292.05	46.878
1295.68	19.171
1299.3	21.51
1302.92	68.537
1306.55	73.338
1310.16	2.724
1313.78	3.855
1317.4	4.049
1321.01	23.214
1324.62	38.828
1328.24	29.496
1331.85	46.396
1335.45	40.809
1339.06	44.835
1342.66	3.589
1346.27	21.664
1349.87	82.623
1353.47	31.906
1357.07	34.579
1360.66	5.074
1364.26	18.7
1367.85	64.436
1371.44	62.271
1375.04	53.603
1378.62	72.371
1382.21	14.653
1385.8	27.553
1389.38	46.262
1392.96	61.102
1396.54	61.863
1400.12	64.488
1403.7	70.95
1407.28	70.157
1410.85	91.16
1414.42	100.215
1417.99	77.653
1421.56	85.561
1425.13	2.798
1428.7	82.5
1432.26	81.456
1435.83	66.985
1439.39	91.035
1442.95	71.389
1446.51	88.586
1450.06	101.879
1453.62	69.594
1457.17	88.911
1460.73	107.846
1464.28	126.901
1467.83	0.643
1471.37	47.859
1474.92	72.282
1478.46	56.243
1482.01	105.28
1485.55	33.243
1489.09	40.672
1492.63	69.852
1496.16	76.07
1499.7	24.697
1503.23	50.294
1506.76	7.446
1510.29	53.486
1513.82	19.641
1517.35	13.409
1520.88	82.337
