Measurement: Raman, 514 nm, ccw, Raman Data Processed
Mineral: Vanadinite
Rruff sample: R050171
Ideal chemistry: Pb_5_(VO_4_)_3_Cl
Locality: Hamburg mine, La Paz County, Arizona, USA
Source: Marcus Origlieri
Description: Red prismatic hexagonal crystals
Measured chemistry: Pb_5.00_((V_0.89_As_0.11_)O_4_)_3_Cl_1.00_
Pin_id: M00093
Orientation: Laser parallel to -a* (-1 0 0). Fiducial mark perpendicular to laser is parallel to -c [0 0 -1]
Raman shift (cm-1)	intensity
74.54	0
78.729	689.629
82.916	535.713
87.101	1678.45
91.284	2748.24
95.465	3558.01
99.644	3558.76
103.82	2919.56
107.995	2217.22
112.168	1614.05
116.339	1320.77
120.508	1018.08
124.675	928.818
128.84	1036.83
133.003	1199.09
137.164	1341.83
141.323	1554.64
145.48	1529
149.635	1628.53
153.788	1672.92
157.939	1773.23
162.088	1728.88
166.235	1573.5
170.38	1541.79
174.523	1433.41
178.664	1239.09
182.803	1023.83
186.94	862.038
191.076	660.222
195.209	506.891
199.34	363.429
203.47	243.318
207.597	105.396
211.722	16.616
215.846	59.263
219.967	88.234
224.087	192.494
228.204	173.953
232.32	205.747
236.434	92.639
240.545	202.758
244.655	6.737
248.763	93.855
252.869	198.554
256.973	327.685
261.075	552.631
265.175	794.929
269.273	1119.84
273.369	1531.74
277.463	2201.61
281.556	2907.32
285.646	4036.14
289.734	5274.32
293.821	6216.63
297.905	6435.9
301.988	6425.36
306.069	6718.2
310.147	7514.28
314.224	9326.44
318.299	11552.8
322.372	13263.9
326.443	13021.1
330.512	11236
334.579	8799.1
338.645	7250
342.708	6225.13
346.769	5670.85
350.829	5567.12
354.887	5782.97
358.942	6184.94
362.996	6698.55
367.048	6687.12
371.098	6138.48
375.146	5122.68
379.192	4008.24
383.236	3285.25
387.279	2738.6
391.319	2317.48
395.358	2028.36
399.394	1776.82
403.429	1620.82
407.462	1488.35
411.493	1371.59
415.522	1315.53
419.549	1177.57
423.575	1109.64
427.598	981.3
431.619	879.772
435.639	752.039
439.657	763.268
443.673	697.033
447.687	607.494
451.699	636.044
455.709	557.185
459.717	521.944
463.724	485.41
467.728	447.595
471.731	419
475.732	390.343
479.731	380.135
483.728	361.424
487.723	326.806
491.716	324.369
495.708	289.513
499.697	229.126
503.685	238.705
507.671	221.396
511.655	212.257
515.637	173.333
519.617	170.669
523.596	128.329
527.572	130.391
531.547	76.948
535.52	86.131
539.491	95.056
543.46	83.889
547.427	50.766
551.393	17.858
555.356	17.138
559.318	0.311
563.278	20.38
567.236	28.215
571.192	32.118
575.147	45.755
579.099	6.812
583.05	26.275
586.999	4.23
590.946	36.42
594.891	16.337
598.834	40.268
602.776	29.402
606.715	5.073
610.653	35.176
614.589	4.607
618.523	8.622
622.456	24.914
626.386	37.734
630.315	39.17
634.242	47.915
638.167	25.543
642.09	11.72
646.012	55.705
649.931	1.651
653.849	3.408
657.765	2.799
661.679	46.89
665.592	52.918
669.502	99.912
673.411	118.549
677.318	148.292
681.223	203.259
685.126	262.14
689.028	348.255
692.927	477.729
696.825	614.171
700.721	761.056
704.616	932.957
708.508	1152.48
712.399	1414.96
716.288	1704.1
720.175	1847.31
724.06	1974.64
727.944	2004.12
731.825	2024.33
735.705	1944.36
739.584	2075.49
743.46	2293.47
747.334	2511.97
751.207	2855.84
755.078	3304.24
758.947	3760.7
762.815	4395.2
766.68	5069.47
770.544	5940.08
774.406	6971.94
778.267	8161.02
782.125	9418.91
785.982	11018.1
789.837	12656.3
793.69	14906.4
797.542	17568.1
801.391	20210.6
805.239	23993.2
809.085	27725.8
812.93	32329.5
816.772	37063.6
820.613	42448.3
824.452	45623.3
828.29	46978.9
832.125	44544.8
835.959	39651.2
839.791	33328.1
843.621	27175.3
847.45	21963.1
851.277	17361.3
855.102	14060.1
858.925	11541.2
862.746	9473.95
866.566	8013.97
870.384	6927.45
874.2	6193.81
878.015	5390.47
881.828	4758.78
885.639	4126.79
889.448	3511.03
893.256	3001.17
897.061	2752.76
900.865	2410.47
904.668	2082.95
908.468	2005.27
912.267	1687.82
916.064	1592.27
919.86	1448.3
923.653	1249.47
927.445	1193.08
931.236	1019.02
935.024	907.675
938.811	859.827
942.596	751.456
946.379	635.811
950.161	554.92
953.94	496.682
957.719	441.529
961.495	297.549
965.27	268.707
969.043	201.357
972.814	157.446
976.583	222.403
980.351	101.596
984.117	74.203
987.882	80.855
991.644	59.824
995.405	20.212
999.165	41.515
1002.92	5.048
1006.68	38.853
1010.43	76.008
1014.18	10.962
1017.93	51.906
1021.68	88.698
1025.43	6.591
1029.18	25.181
1032.92	29.904
1036.66	47.634
1040.4	39.481
1044.14	33.407
1047.88	3.369
1051.62	9.402
1055.35	2.504
1059.08	30.335
1062.81	20.842
1066.54	13.937
1070.27	25.345
1073.99	58.292
1077.72	7.892
1081.44	12.738
1085.16	47.221
1088.88	67.724
1092.59	34.12
1096.31	27.823
1100.02	44.156
1103.73	32.614
1107.44	70.805
1111.15	32.018
1114.86	56.169
1118.57	68.52
1122.27	93.92
1125.97	123.518
1129.67	86.979
1133.37	94.018
1137.07	110.768
1140.76	89.272
1144.45	138.841
1148.15	112.751
1151.84	71.35
1155.53	121.078
1159.21	119.161
1162.9	127.928
1166.58	145.787
1170.26	152.868
1173.94	142.448
1177.62	159.993
1181.3	169.688
1184.97	142.74
1188.65	178.03
1192.32	105.844
1195.99	161.822
1199.66	114.286
1203.33	143.504
1206.99	162.802
1210.65	146.818
1214.32	139.479
1217.98	156.895
1221.64	125.22
1225.29	118.133
1228.95	80.184
1232.6	108.113
1236.26	116.525
1239.91	103.765
1243.56	100.726
1247.2	92.545
1250.85	91.933
1254.49	117.335
1258.13	74.64
1261.78	80.774
1265.41	69.922
1269.05	35.854
1272.69	62.597
1276.32	34.682
1279.95	56.141
1283.59	45.612
1287.21	59.828
1290.84	34.345
1294.47	5.739
1298.09	36.476
1301.72	21.116
1305.34	14.83
1308.96	35.824
1312.58	23.337
1316.19	10.414
1319.81	15.327
1323.42	6.962
1327.03	14.364
1330.64	31.365
1334.25	15.05
1337.86	45.453
1341.46	22.867
1345.07	56.129
1348.67	31.666
1352.27	22.915
1355.87	12.296
1359.46	4.76
1363.06	28.11
1366.65	60.084
1370.25	38.734
1373.84	3.726
1377.43	17.255
1381.02	61.601
1384.6	49.506
1388.18	48.101
1391.77	69.328
1395.35	44.768
1398.93	60.382
1402.51	41.044
1406.08	65.132
1409.66	37.53
1413.23	22.863
1416.8	120.622
1420.37	101.459
1423.94	87.315
1427.51	31.444
1431.08	64.133
1434.64	87.258
1438.2	52.013
1441.76	67.824
1445.32	59.924
1448.88	57.303
1452.43	46.547
1455.99	73.78
1459.54	76.962
1463.09	43.801
1466.64	36.27
1470.19	38.406
1473.74	74.195
1477.28	70.187
1480.83	51.753
1484.37	7.948
1487.91	45.35
1491.45	76.798
1494.98	10.138
1498.52	46.896
1502.05	59.593
1505.59	38.682
1509.12	66.298
1512.65	30.918
1516.17	30.798
1519.7	0.199
