Measurement: Raman, 514 nm, ccw, Raman Data Processed
Mineral: Vanadinite
Rruff sample: R050171
Ideal chemistry: Pb_5_(VO_4_)_3_Cl
Locality: Hamburg mine, La Paz County, Arizona, USA
Source: Marcus Origlieri
Description: Red prismatic hexagonal crystals
Measured chemistry: Pb_5.00_((V_0.89_As_0.11_)O_4_)_3_Cl_1.00_
Pin_id: M00093
Orientation: Laser parallel to -a* (-1 0 0). Fiducial mark perpendicular to laser is parallel to -c [0 0 -1]
Raman shift (cm-1)	intensity
70.349	0
74.54	204.309
78.729	1304.4
82.916	1501.75
87.101	2306.95
91.284	2785.83
95.465	2903.31
99.644	2869.55
103.82	2500.48
107.995	2237.17
112.168	2280.78
116.339	2374.5
120.508	2437.5
124.675	2505.36
128.84	2931.04
133.003	3129.42
137.164	3265.87
141.323	3348.46
145.48	3222.38
149.635	3034.9
153.788	2875.96
157.939	2655.63
162.088	2404.97
166.235	2035.47
170.38	1794.01
174.523	1598.3
178.664	1343.59
182.803	1135.59
186.94	916.094
191.076	774.89
195.209	569.676
199.34	397.056
203.47	321.85
207.597	167.045
211.722	65.623
215.846	27.882
219.967	65.163
224.087	158.727
228.204	182.628
232.32	192.929
236.434	205.19
240.545	178.328
244.655	74.47
248.763	27.047
252.869	59.179
256.973	175.359
261.075	363.184
265.175	613.237
269.273	922.665
273.369	1345.19
277.463	2085.92
281.556	3077.64
285.646	4481.51
289.734	6274.04
293.821	7263.62
297.905	6811.32
301.988	5517.7
306.069	4269.4
310.147	3335.97
314.224	2919.96
318.299	2769.87
322.372	2741.52
326.443	2607.23
330.512	2380.46
334.579	2295.34
338.645	2260.52
342.708	2423.47
346.769	2782.21
350.829	3285.52
354.887	4362.25
358.942	5736.79
362.996	7065.77
367.048	7862.9
371.098	7272.75
375.146	5812.77
379.192	4339.06
383.236	3239.53
387.279	2532.27
391.319	1968.84
395.358	1681.95
399.394	1453.64
403.429	1288.65
407.462	1104.65
411.493	1029.36
415.522	852.171
419.549	779.648
423.575	714.98
427.598	614.527
431.619	558.115
435.639	505.478
439.657	444.116
443.673	407.192
447.687	386.114
451.699	342.054
455.709	300.615
459.717	321.33
463.724	264.917
467.728	261.256
471.731	230.961
475.732	191.891
479.731	199.085
483.728	193.666
487.723	179.219
491.716	129.682
495.708	147.709
499.697	159.595
503.685	149.034
507.671	133.535
511.655	129.399
515.637	78.63
519.617	110.227
523.596	84.208
527.572	75.597
531.547	50.415
535.52	24.684
539.491	8.481
543.46	19.961
547.427	8.723
551.393	13.561
555.356	11.858
559.318	2.742
563.278	20.365
567.236	13.067
571.192	12.027
575.147	33.355
579.099	29.181
583.05	21.552
586.999	28.405
590.946	16.768
594.891	39.802
598.834	12.834
602.776	22.687
606.715	10.579
610.653	30.971
614.589	9.001
618.523	19.337
622.456	7.895
626.386	4.514
630.315	16.057
634.242	19.065
638.167	14.676
642.09	13.531
646.012	7.99
649.931	28.412
653.849	22.455
657.765	9.671
661.679	13.611
665.592	63.439
669.502	71.163
673.411	117.308
677.318	147.962
681.223	207.431
685.126	277.913
689.028	348.841
692.927	458.051
696.825	603.809
700.721	779.262
704.616	990.634
708.508	1207.7
712.399	1515.39
716.288	1818.3
720.175	1994.51
724.06	1950.7
727.944	1844.09
731.825	1610.91
735.705	1486.18
739.584	1419.65
743.46	1395.33
747.334	1501.99
751.207	1771.1
755.078	2068.16
758.947	2365.32
762.815	2829.07
766.68	3488.78
770.544	4197.18
774.406	5091.58
778.267	6236.51
782.125	7491.59
785.982	9059.83
789.837	10932
793.69	13474.4
797.542	16667.4
801.391	20440.5
805.239	25483.7
809.085	30388.1
812.93	36312.7
816.772	42137.8
820.613	48853.3
824.452	53219.2
828.29	55345.6
832.125	52632.3
835.959	46809.4
839.791	39376.9
843.621	31834.8
847.45	25563.1
851.277	20212
855.102	16251.4
858.925	13311.9
862.746	10892.9
866.566	9074.22
870.384	7787.19
874.2	6779.65
878.015	5892.52
881.828	5156.56
885.639	4467.1
889.448	3751.75
893.256	3242.15
897.061	2722.22
900.865	2322.06
904.668	2103.28
908.468	1830.36
912.267	1648.2
916.064	1500.39
919.86	1320.19
923.653	1218.42
927.445	1079.49
931.236	899.081
935.024	914.667
938.811	753.796
942.596	650.866
946.379	561.671
950.161	505.86
953.94	447.929
957.719	389.747
961.495	322.224
965.27	261.825
969.043	188.95
972.814	218.298
976.583	163.563
980.351	154.196
984.117	91.071
987.882	66.584
991.644	53.017
995.405	46.422
999.165	16.844
1002.92	17.544
1006.68	31.4
1010.43	28.665
1014.18	1.611
1017.93	15.438
1021.68	36.18
1025.43	8.89
1029.18	22.583
1032.92	33.315
1036.66	47.108
1040.4	41.023
1044.14	43.005
1047.88	11.027
1051.62	5.103
1055.35	2.264
1059.08	12.51
1062.81	0.143
1066.54	12.749
1070.27	5.674
1073.99	2.816
1077.72	30.338
1081.44	3.692
1085.16	58.146
1088.88	31.403
1092.59	3.775
1096.31	4.243
1100.02	36.18
1103.73	24.462
1107.44	57.453
1111.15	72.566
1114.86	69.445
1118.57	67.62
1122.27	101.15
1125.97	102.768
1129.67	86.301
1133.37	75.491
1137.07	72.152
1140.76	77.732
1144.45	125.36
1148.15	85.896
1151.84	89.356
1155.53	110.667
1159.21	147.755
1162.9	118.357
1166.58	103.323
1170.26	119.406
1173.94	119.307
1177.62	120.138
1181.3	114.891
1184.97	104.177
1188.65	118.107
1192.32	105.139
1195.99	93.178
1199.66	101.418
1203.33	110.186
1206.99	100.73
1210.65	75.206
1214.32	100.134
1217.98	78.14
1221.64	110.58
1225.29	74.859
1228.95	67.911
1232.6	67.242
1236.26	82.134
1239.91	68.776
1243.56	65.007
1247.2	63.779
1250.85	59.433
1254.49	60.348
1258.13	39.349
1261.78	62.207
1265.41	35.321
1269.05	32.329
1272.69	35.169
1276.32	31.827
1279.95	12.229
1283.59	50.714
1287.21	39.453
1290.84	30.165
1294.47	20.538
1298.09	27.723
1301.72	3.718
1305.34	10.35
1308.96	37.837
1312.58	18.959
1316.19	32.126
1319.81	16.932
1323.42	21.655
1327.03	35.178
1330.64	18.689
1334.25	54.954
1337.86	22.922
1341.46	31.724
1345.07	34.425
1348.67	44.914
1352.27	59.256
1355.87	54.55
1359.46	11.546
1363.06	47.99
1366.65	32.638
1370.25	46.012
1373.84	32.273
1377.43	11.115
1381.02	66.986
1384.6	47.376
1388.18	78.407
1391.77	44.851
1395.35	56.103
1398.93	22.434
1402.51	9.464
1406.08	48.692
1409.66	44.078
1413.23	36.202
1416.8	33.408
1420.37	31.146
1423.94	25.83
1427.51	52.691
1431.08	26.454
1434.64	25.62
1438.2	33.325
1441.76	13.534
1445.32	51.035
1448.88	36.487
1452.43	57.156
1455.99	31.925
1459.54	51.13
1463.09	40.726
1466.64	27.241
1470.19	15.885
1473.74	32.155
1477.28	45.189
1480.83	39.66
1484.37	11.821
1487.91	40.294
1491.45	32.037
1494.98	42.642
1498.52	20.701
1502.05	18.181
1505.59	67.794
1509.12	80.834
1512.65	66.734
1516.17	7.123
1519.7	0.346
1523.23	23.632
