Measurement: Raman, 514 nm, ccw, Raman Data Processed
Mineral: Vayrynenite
Rruff sample: R050243
Ideal chemistry: Mn^2+^Be(PO_4_)OH
Locality: Viitaniemi pegmatite, Erajarvi, Orivesi, Finland
Source: Marcus Origlieri
Description: Pink massive with defined cleavage planes
Measured chemistry: (Mn^2+^_0.95_Fe^2+^_0.05_)_Σ=1_Be_1.00_(P_1.00_O_4_)((OH)_0.94_F_0.06_)_Σ=1_ ; Be not measured but estimated by difference and charge balance.
Pin_id: M00427
Orientation: Laser parallel to b* (0 1 0). Fiducial mark perpendicular to laser is parallel to c [0 0 1]
Raman shift (cm-1)	intensity
56.365	0
60.563	23.067
64.758	2.769
68.952	97.896
73.144	279.029
77.333	527.76
81.521	764.483
85.706	1196.77
89.89	2442.18
94.071	4385.05
98.251	1650.4
102.428	981.445
106.604	994.553
110.777	940.37
114.949	959.674
119.119	1547.8
123.286	2243.09
127.452	1595.37
131.615	756.283
135.777	551.815
139.937	526.911
144.094	427.955
148.25	417.994
152.403	369.254
156.555	373.839
160.705	588.837
164.853	745.3
168.998	598.174
173.142	669.459
177.284	1747.83
181.424	4168.51
185.562	5419.18
189.698	1556.3
193.831	639.306
197.963	446.122
202.093	377.426
206.221	423.034
210.347	546.934
214.472	663.137
218.594	824.642
222.714	629.675
226.832	407.705
230.948	394.083
235.063	283.37
239.175	149.719
243.286	129.921
247.394	52.835
251.501	73.355
255.605	153.404
259.708	281.229
263.808	458.237
267.907	348.868
272.004	150.491
276.099	105.424
280.192	350.645
284.283	608.132
288.372	571.845
292.459	114.76
296.544	41.133
300.627	79.955
304.709	94.55
308.788	54.179
312.865	38.719
316.941	60.144
321.015	39.668
325.086	198.677
329.156	549.663
333.224	1385.35
337.29	2045.27
341.354	1163.69
345.416	734.064
349.476	773.336
353.534	780.866
357.591	614.407
361.645	589.379
365.698	777.644
369.748	1464.12
373.797	3126.78
377.844	5808.6
381.889	5786.54
385.932	3250.57
389.973	1547.79
394.012	894.198
398.049	669.756
402.084	751.448
406.118	585.26
410.15	255.179
414.179	158.197
418.207	64.303
422.233	9.486
426.257	16.707
430.279	74.973
434.299	46.297
438.318	80.676
442.334	160.102
446.349	297.572
450.361	582.08
454.372	1401.62
458.381	3003.96
462.388	4571.6
466.394	2565.53
470.397	872.536
474.398	304.145
478.398	63.604
482.396	2.301
486.391	32.04
490.385	45.524
494.377	13.207
498.368	50.949
502.356	189.063
506.342	384.55
510.327	330.153
514.31	287.851
518.291	348.483
522.27	504.575
526.247	759.058
530.222	1906.26
534.196	6017.29
538.167	9030.21
542.137	3073.74
546.105	1051.8
550.071	468.784
554.035	278.691
557.998	171.54
561.958	212.26
565.917	382.915
569.874	497.479
573.829	476.948
577.782	390.32
581.733	439.75
585.683	592.043
589.63	1065.09
593.576	2452.05
597.52	3744.91
601.462	2909.65
605.402	2097.28
609.341	2737.8
613.277	6262.2
617.212	11924.5
621.145	7866.72
625.076	3025.94
629.006	1463.17
632.933	774.34
636.859	464.447
640.783	412.852
644.705	301.705
648.625	215.706
652.543	218.632
656.46	194.449
660.375	46.944
664.288	38.838
668.199	54.628
672.108	57.636
676.016	92.6
679.921	19.912
683.825	22.84
687.727	13.888
691.628	19.613
695.526	78.244
699.423	169.341
703.318	346.302
707.211	283.13
711.102	283.828
714.992	280.396
718.879	428.835
722.765	762.149
726.649	1175.34
730.532	2089.4
734.412	3314.34
738.291	4359.17
742.168	3938.89
746.043	2580.5
749.916	1598
753.788	993.379
757.658	716.648
761.526	581.805
765.392	433.854
769.257	295.804
773.119	337.644
776.98	267.382
780.839	258.019
784.697	194.555
788.552	244.992
792.406	187.331
796.258	193.579
800.108	246.773
803.957	132.97
807.804	58.174
811.649	102.348
815.492	38.795
819.333	66.229
823.173	68.731
827.011	98.765
830.847	20.236
834.681	12.293
838.514	68.079
842.345	33.536
846.174	37.983
850.001	31.687
853.827	88.691
857.651	81.786
861.473	152.938
865.293	169.128
869.112	89.358
872.928	45.588
876.744	12.815
880.557	25.041
884.369	33.27
888.178	74.502
891.987	109.741
895.793	153.99
899.598	126.25
903.401	95.527
907.202	84.825
911.001	69.158
914.799	94.538
918.595	73.989
922.389	140.496
926.182	185.034
929.972	188.604
933.761	212.221
937.549	256.877
941.334	379.573
945.118	385.313
948.9	463.095
952.681	538.92
956.459	699.792
960.236	1048.49
964.012	1513.08
967.785	1902.8
971.557	2235.43
975.327	3046.22
979.095	4793.28
982.862	7164.99
986.627	7899.49
990.39	6856.91
994.152	7925.55
997.912	14483.2
1001.67	33831.8
1005.43	60249
1009.18	37789
1012.93	17373.2
1016.68	9356.6
1020.43	5952.77
1024.18	4280.78
1027.93	3396.73
1031.67	2841.73
1035.42	2724.78
1039.16	2926.89
1042.9	2940.08
1046.63	2246.34
1050.37	1485.85
1054.11	1089.55
1057.84	811.298
1061.57	919.627
1065.3	1174.81
1069.03	2102.32
1072.75	3897.64
1076.47	3381.59
1080.2	1421.32
1083.92	665.432
1087.64	434.505
1091.36	316.006
1095.07	261.131
1098.79	282.187
1102.5	186.479
1106.21	176.085
1109.92	155.352
1113.62	145.574
1117.33	151.884
1121.04	420.303
1124.74	959.75
1128.44	633.289
1132.14	213.622
1135.83	92.164
1139.53	153.778
1143.22	59.544
1146.92	73.415
1150.61	24.275
1154.3	99.372
1157.98	11.54
1161.67	18.647
1165.35	36.056
1169.04	42.354
1172.72	126.439
1176.4	129.952
1180.07	174.081
1183.75	213.787
1187.42	206.308
1191.1	244.156
1194.77	94.075
1198.44	52.998
1202.1	106.723
1205.77	52.63
1209.43	80.196
1213.1	21.686
1216.76	10.054
1220.42	95.174
1224.07	94.086
1227.73	86.066
1231.38	64.781
1235.04	24.06
1238.69	76.747
1242.34	66.285
1245.99	60.763
1249.63	25.352
1253.28	61.504
1256.92	75.614
1260.56	4.847
1264.2	12.559
1267.84	64.821
1271.48	46.361
1275.11	103.007
1278.74	48.444
1282.38	81.496
1286.01	61.658
1289.63	63.293
1293.26	56.154
1296.89	102.215
1300.51	70.351
1304.13	83.924
1307.75	48.359
1311.37	66.831
1314.99	85.474
1318.6	117.16
1322.22	37.789
1325.83	17.242
1329.44	1.869
1333.05	30.505
1336.66	34.703
1340.26	63.83
1343.87	30.958
1347.47	91.846
1351.07	110.418
1354.67	72.458
1358.27	99.188
1361.86	52.621
1365.46	28.819
1369.05	7.907
1372.64	8.419
1376.23	38.985
1379.82	122.595
1383.41	112.435
1386.99	131.791
1390.57	195.359
1394.16	127.567
1397.74	192.695
1401.32	201.872
1404.89	154.839
1408.47	16.339
1412.04	127.24
1415.61	97.148
1419.18	64.836
1422.75	123.698
1426.32	40.723
1429.89	129.107
1433.45	142.077
1437.01	161.102
1440.58	261.289
1444.13	375.211
1447.69	432.912
1451.25	506.645
1454.81	550.143
1458.36	626.143
1461.91	569.251
1465.46	383.346
1469.01	234.072
1472.56	300.062
1476.1	229.253
1479.64	206.014
1483.19	187.087
1486.73	200.217
1490.27	167.844
1493.81	151.521
1497.34	120
1500.88	47.676
1504.41	36.043
1507.94	54.129
1511.47	5.252
1515	101.268
1518.53	15.787
1522.05	8.853
1525.57	30.597
