Measurement: Raman, 514 nm, ccw, Raman Data Processed
Mineral: Vayrynenite
Rruff sample: R050243
Ideal chemistry: Mn^2+^Be(PO_4_)OH
Locality: Viitaniemi pegmatite, Erajarvi, Orivesi, Finland
Source: Marcus Origlieri
Description: Pink massive with defined cleavage planes
Measured chemistry: (Mn^2+^_0.95_Fe^2+^_0.05_)_Σ=1_Be_1.00_(P_1.00_O_4_)((OH)_0.94_F_0.06_)_Σ=1_ ; Be not measured but estimated by difference and charge balance.
Pin_id: M00264
Orientation: Laser parallel to (1 0 1). Fiducial mark perpendicular to laser is parallel to b [0 1 0]
Raman shift (cm-1)	intensity
56.365	0
60.563	0.661
64.758	4.427
68.952	10.813
73.144	70.607
77.333	245.226
81.521	315.439
85.706	981.678
89.89	2435.32
94.071	3269.95
98.251	1819.74
102.428	741.123
106.604	911.693
110.777	1072.23
114.949	1000.75
119.119	1634.89
123.286	2164.17
127.452	2181.46
131.615	988.793
135.777	404.219
139.937	311.757
144.094	226.139
148.25	208.431
152.403	175.783
156.555	228.271
160.705	291.972
164.853	517.078
168.998	489.426
173.142	558.476
177.284	1514.19
181.424	3038.11
185.562	3830.29
189.698	2263.88
193.831	852.74
197.963	463.849
202.093	427.196
206.221	464.752
210.347	660.524
214.472	719.526
218.594	859.765
222.714	818.775
226.832	870.231
230.948	1384.89
235.063	1529.43
239.175	585.674
243.286	206.452
247.394	129.676
251.501	117.283
255.605	280.225
259.708	707.457
263.808	1173.22
267.907	1178.86
272.004	558.002
276.099	191.137
280.192	25.46
284.283	9.645
288.372	20.476
292.459	16.81
296.544	108.083
300.627	50.406
304.709	28.748
308.788	33.062
312.865	104.693
316.941	211.571
321.015	612.573
325.086	1530.7
329.156	2469.94
333.224	2673.3
337.29	1909.72
341.354	1196.12
345.416	702.302
349.476	539.519
353.534	515.999
357.591	455.747
361.645	428.763
365.698	595.033
369.748	1143.54
373.797	2518.23
377.844	4374.06
381.889	4826.02
385.932	3074.09
389.973	1597.23
394.012	809.723
398.049	555.263
402.084	645.938
406.118	650.739
410.15	375.661
414.179	196.696
418.207	88.841
422.233	28.09
426.257	54.603
430.279	18.699
434.299	33.071
438.318	72.513
442.334	159.042
446.349	297.636
450.361	694.165
454.372	1720.78
458.381	3950.52
462.388	6090.71
466.394	4820.73
470.397	2149.47
474.398	791.298
478.398	296.555
482.396	173.889
486.391	72.296
490.385	153.775
494.377	286.323
498.368	797.938
502.356	2552.75
506.342	4711.35
510.327	3804.7
514.31	1635.88
518.291	896.926
522.27	366.93
526.247	193.097
530.222	377.571
534.196	1183.16
538.167	2049.61
542.137	1461.98
546.105	587.41
550.071	252.891
554.035	183.416
557.998	148.993
561.958	263.612
565.917	532.252
569.874	802.88
573.829	920.489
577.782	603.072
581.733	379.627
585.683	547.954
589.63	971.443
593.576	2250.7
597.52	4123.11
601.462	4329.49
605.402	2800.83
609.341	1813.16
613.277	2346.47
617.212	3640.83
621.145	3524.3
625.076	1871.83
629.006	965.397
632.933	658.924
636.859	885.385
640.783	1023.78
644.705	666.097
648.625	346.226
652.543	120.512
656.46	65.601
660.375	13.428
664.288	24.667
668.199	13.228
672.108	73.073
676.016	46.497
679.921	18.807
683.825	3.625
687.727	22.772
691.628	38.672
695.526	98.814
699.423	184.931
703.318	373.072
707.211	459.267
711.102	405.053
714.992	302.054
718.879	366.013
722.765	559.265
726.649	813.66
730.532	1390.86
734.412	2298.91
738.291	3126.84
742.168	3229.68
746.043	2315.42
749.916	1533.05
753.788	1012.56
757.658	653.939
761.526	544.194
765.392	470.24
769.257	415.33
773.119	331.212
776.98	330.968
780.839	319.598
784.697	402.103
788.552	502.482
792.406	656.738
796.258	838.872
800.108	969.885
803.957	717.782
807.804	388.35
811.649	292.229
815.492	607.396
819.333	95.219
823.173	76.696
827.011	65.846
830.847	6.459
834.681	29.854
838.514	16.015
842.345	49.93
846.174	4.335
850.001	29.816
853.827	40.7
857.651	36.739
861.473	58.902
865.293	1.227
869.112	37.679
872.928	10.263
876.744	23.082
880.557	0.401
884.369	116.702
888.178	74.994
891.987	285.28
895.793	302.564
899.598	271.849
903.401	216.138
907.202	184.437
911.001	133.2
914.799	119.089
918.595	162.447
922.389	183.836
926.182	216.251
929.972	304.696
933.761	384.173
937.549	443.687
941.334	492.245
945.118	509.858
948.9	522.538
952.681	624.317
956.459	784.155
960.236	1015.06
964.012	1362.03
967.785	1829.17
971.557	2534.47
975.327	3769.97
979.095	6388.61
982.862	10048.1
986.627	11767
990.39	9275.6
994.152	8647.42
997.912	12654.2
1001.67	27949.4
1005.43	51864.1
1009.18	40295.7
1012.93	19251.7
1016.68	9961.75
1020.43	6051.38
1024.18	4190.48
1027.93	3084.04
1031.67	2503.13
1035.42	2160.49
1039.16	2117.99
1042.9	1896.64
1046.63	1590.45
1050.37	1138.39
1054.11	832.473
1057.84	739.685
1061.57	791.946
1065.3	1010.41
1069.03	1823.58
1072.75	3426.28
1076.47	3467.09
1080.2	1694.02
1083.92	898.066
1087.64	570.219
1091.36	369.612
1095.07	292.058
1098.79	330.577
1102.5	300.232
1106.21	388.902
1109.92	349.206
1113.62	564.821
1117.33	1149.97
1121.04	2867.88
1124.74	8176.54
1128.44	7194
1132.14	2786.28
1135.83	1473.71
1139.53	1366.7
1143.22	1144.74
1146.92	735.613
1150.61	361.353
1154.3	190.032
1157.98	100.635
1161.67	80.363
1165.35	51.36
1169.04	123.955
1172.72	137.417
1176.4	61.36
1180.07	153.985
1183.75	88.88
1187.42	106.248
1191.1	51.519
1194.77	65.724
1198.44	15.431
1202.1	38.956
1205.77	9.541
1209.43	8.104
1213.1	5.199
1216.76	8.728
1220.42	62.635
1224.07	32.944
1227.73	41.159
1231.38	65.023
1235.04	6.843
1238.69	6.896
1242.34	33.71
1245.99	31.056
1249.63	11.491
1253.28	26.512
1256.92	44.698
1260.56	46.529
1264.2	8.002
1267.84	27.467
1271.48	44.349
1275.11	13.312
1278.74	21.989
1282.38	20.482
1286.01	21.281
1289.63	15.586
1293.26	9.185
1296.89	12.044
1300.51	5.903
1304.13	33.004
1307.75	34.658
1311.37	52.112
1314.99	46.37
1318.6	14.593
1322.22	34.201
1325.83	17.229
1329.44	63.094
1333.05	9.703
1336.66	6.158
1340.26	35.797
1343.87	21.222
1347.47	23.443
1351.07	73.463
1354.67	26.371
1358.27	107.987
1361.86	99.106
1365.46	67.12
1369.05	60.233
1372.64	85.194
1376.23	64.869
1379.82	78.051
1383.41	136.746
1386.99	83.59
1390.57	62.271
1394.16	80.725
1397.74	107.943
1401.32	120.743
1404.89	117.07
1408.47	110.303
1412.04	102.53
1415.61	121.378
1419.18	142.973
1422.75	125.406
1426.32	55.789
1429.89	90.882
1433.45	143.142
1437.01	92.022
1440.58	99.119
1444.13	93.964
1447.69	127.432
1451.25	141.935
1454.81	161.81
1458.36	187.636
1461.91	132.771
1465.46	94.75
1469.01	87.744
1472.56	26.777
1476.1	78.219
1479.64	99.332
1483.19	114.37
1486.73	82.475
1490.27	88.528
1493.81	51.591
1497.34	27.873
1500.88	13.938
1504.41	58.792
1507.94	101.08
1511.47	73.818
1515	99.409
1518.53	88.85
1522.05	11.245
1525.57	0.143
