Measurement: Raman, 514 nm, ccw, Raman Data Processed
Mineral: Vayrynenite
Rruff sample: R050243
Ideal chemistry: Mn^2+^Be(PO_4_)OH
Locality: Viitaniemi pegmatite, Erajarvi, Orivesi, Finland
Source: Marcus Origlieri
Description: Pink massive with defined cleavage planes
Measured chemistry: (Mn^2+^_0.95_Fe^2+^_0.05_)_Σ=1_Be_1.00_(P_1.00_O_4_)((OH)_0.94_F_0.06_)_Σ=1_ ; Be not measured but estimated by difference and charge balance.
Pin_id: M00471
Orientation: Laser parallel to c* (0 0 1). Fiducial mark perpendicular to laser is parallel to a [1 0 0]
Raman shift (cm-1)	intensity
56.365	0
60.563	1.009
64.758	17.936
68.952	82.705
73.144	262.636
77.333	487.054
81.521	675.805
85.706	1081.79
89.89	2610.9
94.071	4267.65
98.251	1562.11
102.428	734.551
106.604	701.495
110.777	793.663
114.949	890.851
119.119	2068.89
123.286	3368.12
127.452	1959.74
131.615	655.468
135.777	270.338
139.937	179.351
144.094	168.143
148.25	121.836
152.403	113.609
156.555	139.935
160.705	376.044
164.853	583.417
168.998	417.082
173.142	457.976
177.284	1421.16
181.424	4092.63
185.562	4204.17
189.698	1369.48
193.831	480.704
197.963	275.236
202.093	212.993
206.221	262.939
210.347	396.292
214.472	589.386
218.594	830.902
222.714	563.698
226.832	446.304
230.948	754.745
235.063	607.266
239.175	146.579
243.286	20.059
247.394	1.942
251.501	10.21
255.605	49.989
259.708	233.488
263.808	468.246
267.907	379.906
272.004	110.947
276.099	42.867
280.192	76.41
284.283	199.103
288.372	170.904
292.459	19.795
296.544	55.829
300.627	59.283
304.709	53.379
308.788	60.524
312.865	32.701
316.941	28.132
321.015	169.03
325.086	484.103
329.156	1020.18
333.224	1427.66
337.29	1466.86
341.354	959.102
345.416	753.117
349.476	922.931
353.534	894.81
357.591	589.932
361.645	481.309
365.698	668.908
369.748	1299.69
373.797	2833.6
377.844	5111.61
381.889	4923.68
385.932	2692.83
389.973	1351.11
394.012	835.504
398.049	804.993
402.084	1191.57
406.118	957.209
410.15	474.914
414.179	231.435
418.207	80.191
422.233	33.114
426.257	17.018
430.279	23.946
434.299	18.879
438.318	53.815
442.334	108.774
446.349	226.756
450.361	522.759
454.372	1130.78
458.381	2789.64
462.388	4213.32
466.394	2408.78
470.397	883.898
474.398	319.467
478.398	85.924
482.396	20.074
486.391	24.781
490.385	3.684
494.377	45.402
498.368	186.495
502.356	653.622
506.342	1420.66
510.327	1060.18
514.31	843.984
518.291	573.117
522.27	340.738
526.247	474.208
530.222	1027.17
534.196	3035.19
538.167	4378.07
542.137	1810.34
546.105	662.593
550.071	332.809
554.035	248.982
557.998	212.109
561.958	385.187
565.917	703.215
569.874	1158.19
573.829	1122.12
577.782	717
581.733	554.818
585.683	742.355
589.63	1307.52
593.576	3201.17
597.52	5212.41
601.462	4037.91
605.402	2381.36
609.341	2029.73
613.277	4097.04
617.212	7572.32
621.145	5628.65
625.076	2488.04
629.006	1162.5
632.933	677.985
636.859	522.461
640.783	514.865
644.705	413.708
648.625	257.075
652.543	196.17
656.46	142.272
660.375	83.296
664.288	18.723
668.199	5.483
672.108	50.521
676.016	38.237
679.921	4.622
683.825	7.593
687.727	64.676
691.628	50.338
695.526	118.974
699.423	290.99
703.318	530.392
707.211	572.692
711.102	430.816
714.992	337.029
718.879	429.068
722.765	616.031
726.649	969.383
730.532	1689.17
734.412	2895.88
738.291	3898.51
742.168	3603.06
746.043	2354.55
749.916	1457.97
753.788	943.336
757.658	685.627
761.526	536.849
765.392	461.003
769.257	393.091
773.119	324.116
776.98	292.077
780.839	232.977
784.697	346.814
788.552	412.591
792.406	383.309
796.258	438.969
800.108	474.596
803.957	311.197
807.804	160.755
811.649	99.27
815.492	56.71
819.333	30.128
823.173	15.592
827.011	12.759
830.847	13.161
834.681	41.455
838.514	55.019
842.345	18.323
846.174	2.516
850.001	27.696
853.827	0.102
857.651	11.891
861.473	50.704
865.293	48.545
869.112	35.418
872.928	38.325
876.744	36.268
880.557	9.241
884.369	36.251
888.178	85.307
891.987	159.412
895.793	235.568
899.598	196.779
903.401	149.046
907.202	135.374
911.001	97.769
914.799	102.243
918.595	66.789
922.389	64.098
926.182	127.114
929.972	239.918
933.761	339.837
937.549	420.995
941.334	370.971
945.118	383.183
948.9	426.483
952.681	559.888
956.459	723.472
960.236	920.239
964.012	1204.14
967.785	1614.15
971.557	2174.24
975.327	3097.03
979.095	5100.05
982.862	8096.87
986.627	9014.49
990.39	6863.41
994.152	7376.74
997.912	12602
1001.67	30194
1005.43	57220.5
1009.18	37468.7
1012.93	16815
1016.68	8813.42
1020.43	5525.98
1024.18	3803.67
1027.93	2938.47
1031.67	2459.93
1035.42	2243.99
1039.16	2388.18
1042.9	2432.5
1046.63	1951.97
1050.37	1286.59
1054.11	888.328
1057.84	740.193
1061.57	774.301
1065.3	1174.81
1069.03	2210.05
1072.75	4331.38
1076.47	3738.88
1080.2	1454.31
1083.92	632.828
1087.64	390.174
1091.36	259.481
1095.07	83.502
1098.79	112.624
1102.5	50.876
1106.21	60.491
1109.92	69.552
1113.62	140.427
1117.33	294.205
1121.04	814.751
1124.74	2574.48
1128.44	2080.29
1132.14	818.172
1135.83	663.162
1139.53	1129.52
1143.22	1015.21
1146.92	469.28
1150.61	229.447
1154.3	89.978
1157.98	45.709
1161.67	18.943
1165.35	53.193
1169.04	106.997
1172.72	124.872
1176.4	137.816
1180.07	151.818
1183.75	208.867
1187.42	213.136
1191.1	146.494
1194.77	63.686
1198.44	75.617
1202.1	17.784
1205.77	80.041
1209.43	4.571
1213.1	9.873
1216.76	2.588
1220.42	0.292
1224.07	21.369
1227.73	14.61
1231.38	25.944
1235.04	8.775
1238.69	12.254
1242.34	9.685
1245.99	9.058
1249.63	37.079
1253.28	29.873
1256.92	13.904
1260.56	33.855
1264.2	6.617
1267.84	14.775
1271.48	49.066
1275.11	53.338
1278.74	48.511
1282.38	33.833
1286.01	38.647
1289.63	23.537
1293.26	0.581
1296.89	29.052
1300.51	31.697
1304.13	55.354
1307.75	43.02
1311.37	84.686
1314.99	114.34
1318.6	114.872
1322.22	124.37
1325.83	116.887
1329.44	97.913
1333.05	50.836
1336.66	20.39
1340.26	23.486
1343.87	42.592
1347.47	69.931
1351.07	64.505
1354.67	33.04
1358.27	56.545
1361.86	48.615
1365.46	18.899
1369.05	36.578
1372.64	52.327
1376.23	46.834
1379.82	74.819
1383.41	104.262
1386.99	92.495
1390.57	49.091
1394.16	93.12
1397.74	59.907
1401.32	58.946
1404.89	60.412
1408.47	36.758
1412.04	57.429
1415.61	18.571
1419.18	52.256
1422.75	86.672
1426.32	46.373
1429.89	0.195
1433.45	11.168
