Measurement: Raman, 514 nm, ccw, Raman Data Processed
Mineral: Vayrynenite
Rruff sample: R050243
Ideal chemistry: Mn^2+^Be(PO_4_)OH
Locality: Viitaniemi pegmatite, Erajarvi, Orivesi, Finland
Source: Marcus Origlieri
Description: Pink massive with defined cleavage planes
Measured chemistry: (Mn^2+^_0.95_Fe^2+^_0.05_)_Σ=1_Be_1.00_(P_1.00_O_4_)((OH)_0.94_F_0.06_)_Σ=1_ ; Be not measured but estimated by difference and charge balance.
Pin_id: M00264
Orientation: Laser parallel to (1 0 1). Fiducial mark perpendicular to laser is parallel to b [0 1 0]
Raman shift (cm-1)	intensity
77.333	0
81.521	28.946
85.706	351.961
89.89	1146.01
94.071	1788.99
98.251	1168.27
102.428	342.12
106.604	278.687
110.777	356.879
114.949	362.309
119.119	949.791
123.286	1212.59
127.452	1356.1
131.615	536.962
135.777	153.609
139.937	93.943
144.094	19.431
148.25	18.025
152.403	55.747
156.555	143.609
160.705	341.591
164.853	625.629
168.998	528.987
173.142	546.655
177.284	1375.75
181.424	2708.92
185.562	4153.32
189.698	2276.89
193.831	747.879
197.963	348.568
202.093	244.97
206.221	290.498
210.347	437.764
214.472	511.644
218.594	635.99
222.714	583.476
226.832	474.093
230.948	587.839
235.063	642.705
239.175	207.683
243.286	39.13
247.394	18.444
251.501	5.011
255.605	3.928
259.708	36.969
263.808	120.869
267.907	154.23
272.004	1.345
276.099	38.548
280.192	103.692
284.283	256.059
288.372	274.611
292.459	144.32
296.544	42.835
300.627	49.938
304.709	111.1
308.788	37.432
312.865	5.887
316.941	4.396
321.015	19.094
325.086	253.813
329.156	493.631
333.224	1003.23
337.29	1581.3
341.354	1549.9
345.416	1260.55
349.476	1488.25
353.534	1696.96
357.591	1288.4
361.645	841.625
365.698	836.916
369.748	1210.35
373.797	2372.85
377.844	4131.39
381.889	4890.96
385.932	3148.53
389.973	1682.1
394.012	975.663
398.049	783.214
402.084	934.75
406.118	935.283
410.15	508.881
414.179	253.321
418.207	179.519
422.233	93.166
426.257	1.205
430.279	59.326
434.299	70.717
438.318	127.124
442.334	161.649
446.349	249.794
450.361	567.048
454.372	1228.24
458.381	2651.26
462.388	4107.9
466.394	3108.61
470.397	1210.18
474.398	452.211
478.398	95.505
482.396	6.165
486.391	21.779
490.385	24.787
494.377	20.375
498.368	158.087
502.356	527.377
506.342	946.629
510.327	757.087
514.31	409.814
518.291	329.312
522.27	336.302
526.247	583.829
530.222	1259.73
534.196	3379.06
538.167	5466.15
542.137	3276.69
546.105	1158.02
550.071	382.246
554.035	235.376
557.998	153.394
561.958	122.294
565.917	240.074
569.874	346.724
573.829	393.273
577.782	385.708
581.733	429.002
585.683	706.775
589.63	1438.55
593.576	3503.56
597.52	5455.25
601.462	4359.81
605.402	2620.23
609.341	2540.49
613.277	4671.6
617.212	8476.56
621.145	7744.44
625.076	3307.31
629.006	1461.23
632.933	673.121
636.859	388.915
640.783	314.91
644.705	160.646
648.625	122.257
652.543	71.61
656.46	86.534
660.375	4.366
664.288	14.858
668.199	5.474
672.108	100.67
676.016	18.803
679.921	16.08
683.825	38.923
687.727	106.458
691.628	45.476
695.526	83.367
699.423	227.859
703.318	349.318
707.211	447.193
711.102	369.927
714.992	323.098
718.879	442.083
722.765	716.914
726.649	1077.59
730.532	1895.28
734.412	2910.45
738.291	3836.29
742.168	3822.96
746.043	2758.5
749.916	1822.89
753.788	1158.12
757.658	926.191
761.526	847.1
765.392	754.851
769.257	721.451
773.119	701.892
776.98	430.181
780.839	393.318
784.697	316.912
788.552	355.136
792.406	414.818
796.258	519.354
800.108	498.786
803.957	348.996
807.804	205.083
811.649	140.631
815.492	89.238
819.333	100.665
823.173	78.676
827.011	105.264
830.847	57.96
834.681	45.015
838.514	6.822
842.345	7.765
846.174	31.688
850.001	151.499
853.827	60.146
857.651	11.797
861.473	46.308
865.293	90.498
869.112	9.751
872.928	58.913
876.744	35.513
880.557	66.945
884.369	6.456
888.178	74.812
891.987	216.132
895.793	233.418
899.598	243.676
903.401	173.907
907.202	190.12
911.001	210.325
914.799	36.537
918.595	223.737
922.389	145.932
926.182	177.122
929.972	148.309
933.761	261.501
937.549	306.696
941.334	450.897
945.118	423.107
948.9	399.33
952.681	475.579
956.459	641.87
960.236	841.186
964.012	1193.51
967.785	1649.44
971.557	1902.35
975.327	2620.53
979.095	4240.64
982.862	6254.1
986.627	7352.62
990.39	6331.15
994.152	6982.52
997.912	11506.9
1001.67	26469.2
1005.43	50055.7
1009.18	38138.7
1012.93	18273.5
1016.68	9322.17
1020.43	5889.74
1024.18	4122.47
1027.93	3253.51
1031.67	2563.18
1035.42	2481.59
1039.16	2756.24
1042.9	3054.02
1046.63	2675.93
1050.37	1774.92
1054.11	1210.16
1057.84	1072.64
1061.57	1156.28
1065.3	1573.6
1069.03	2834.35
1072.75	5634.06
1076.47	5885.71
1080.2	2811.84
1083.92	1291.16
1087.64	672.157
1091.36	388.948
1095.07	352.997
1098.79	290.933
1102.5	240.957
1106.21	286.322
1109.92	50.361
1113.62	170.371
1117.33	247.671
1121.04	453.25
1124.74	1252.68
1128.44	1135.38
1132.14	362.012
1135.83	295.543
1139.53	500.841
1143.22	300.622
1146.92	86.373
1150.61	63.509
1154.3	18.641
1157.98	57
1161.67	42.358
1165.35	15.699
1169.04	134.018
1172.72	101.368
1176.4	176.489
1180.07	360.728
1183.75	572.232
1187.42	643.777
1191.1	451.479
1194.77	255.751
1198.44	175.487
1202.1	34.291
1205.77	240.935
1209.43	63.955
1213.1	9.868
1216.76	20.46
1220.42	51.49
1224.07	30.65
1227.73	116.531
1231.38	4.21
1235.04	52.861
1238.69	62.929
1242.34	29.647
1245.99	53.578
1249.63	115.724
1253.28	86.521
1256.92	48.956
1260.56	16.096
1264.2	13.086
1267.84	52.621
1271.48	8.784
1275.11	43.727
1278.74	102.15
1282.38	60.409
1286.01	79.195
1289.63	63.527
1293.26	64.647
1296.89	18.587
1300.51	10.305
1304.13	46.255
1307.75	6.142
1311.37	140.738
1314.99	44.552
1318.6	74.926
1322.22	45.115
1325.83	37.01
1329.44	96.489
1333.05	23.347
1336.66	66.558
1340.26	18.86
1343.87	37.003
1347.47	139.386
1351.07	283.876
1354.67	90.601
1358.27	115.132
1361.86	167.858
1365.46	95.27
1369.05	82.229
1372.64	116.104
1376.23	105.647
1379.82	161.105
1383.41	202.167
1386.99	109.396
1390.57	118.491
1394.16	218.981
1397.74	225.968
1401.32	242.442
1404.89	300.42
1408.47	199.944
1412.04	217.98
1415.61	128.903
1419.18	187.857
1422.75	245.862
1426.32	237.937
1429.89	198.744
1433.45	194.647
1437.01	121.339
1440.58	281.054
1444.13	262.718
1447.69	335.86
1451.25	212.313
1454.81	327.058
1458.36	406.641
1461.91	279.98
1465.46	199.985
1469.01	255.712
1472.56	300.656
1476.1	165.5
1479.64	181.141
1483.19	170.468
1486.73	212.099
1490.27	159.771
1493.81	167.707
1497.34	226.146
1500.88	114.158
1504.41	63.021
1507.94	119.819
1511.47	90.698
1515	220.353
1518.53	26.912
1522.05	4.117
1525.57	178.771
