Measurement: Raman, 514 nm, ccw, Raman Data Processed
Mineral: Vayrynenite
Rruff sample: R050243
Ideal chemistry: Mn^2+^Be(PO_4_)OH
Locality: Viitaniemi pegmatite, Erajarvi, Orivesi, Finland
Source: Marcus Origlieri
Description: Pink massive with defined cleavage planes
Measured chemistry: (Mn^2+^_0.95_Fe^2+^_0.05_)_Σ=1_Be_1.00_(P_1.00_O_4_)((OH)_0.94_F_0.06_)_Σ=1_ ; Be not measured but estimated by difference and charge balance.
Pin_id: M00437
Orientation: Laser parallel to a* (1 0 0). Fiducial mark perpendicular to laser is parallel to -b [0 -1 0]
Raman shift (cm-1)	intensity
74.54	0
78.729	224.56
82.916	599.702
87.101	1330.08
91.284	3056.98
95.465	2835.56
99.644	1020.91
103.82	784.823
107.995	795.081
112.168	772.012
116.339	1046.52
120.508	2355.53
124.675	2948.11
128.84	1134.75
133.003	269.605
137.164	76.491
141.323	0.881
145.48	106.437
149.635	139.993
153.788	45.406
157.939	186.435
162.088	716.627
166.235	626.224
170.38	342.811
174.523	522.519
178.664	2017.99
182.803	4668.05
186.94	2683.7
191.076	703.515
195.209	239.597
199.34	73.561
203.47	170.746
207.597	309.965
211.722	572.181
215.846	712.36
219.967	759.453
224.087	570.47
228.204	1196.43
232.32	2480.36
236.434	901.236
240.545	161.504
244.655	14.478
248.763	102.637
252.869	6.858
256.973	17.364
261.075	132.352
265.175	245.858
269.273	53.013
273.369	39.27
277.463	60.121
281.556	125.776
285.646	243.086
289.734	100.791
293.821	30.655
297.905	46.395
301.988	34.587
306.069	30.882
310.147	3.954
314.224	60.511
318.299	125.433
322.372	336.995
326.443	768.427
330.512	1211.03
334.579	1554.27
338.645	1618.35
342.708	1305.15
346.769	1682.8
350.829	2380.1
354.887	1948.7
358.942	1105
362.996	800.432
367.048	920.056
371.098	1604.84
375.146	3325.75
379.192	4693.76
383.236	3352.74
387.279	1773.64
391.319	1128.44
395.358	885.149
399.394	1235.75
403.429	1671.25
407.462	994.588
411.493	420.595
415.522	200.604
419.549	108.51
423.575	54.088
427.598	14.409
431.619	36.247
435.639	15.958
439.657	94.809
443.673	124.082
447.687	293.122
451.699	487.928
455.709	1123.32
459.717	2315.8
463.724	2255.5
467.728	991.555
471.731	371.997
475.732	125.87
479.731	117.41
483.728	66.449
487.723	84.33
491.716	208.063
495.708	408.656
499.697	1139.11
503.685	3268.43
507.671	3742.41
511.655	1423.27
515.637	644.589
519.617	351.272
523.596	336.566
527.572	582.635
531.547	1456.44
535.52	3202.58
539.491	2698.84
543.46	974.744
547.427	390.401
551.393	247.872
555.356	237.156
559.318	272.161
563.278	343.166
567.236	548.902
571.192	687.565
575.147	686.183
579.099	630.368
583.05	839.391
586.999	1431.2
590.946	3003.95
594.891	6887.46
598.834	7949.53
602.776	4660.51
606.715	2531.62
610.653	2552.91
614.589	4988.11
618.523	6678.35
622.456	3693.71
626.386	2042.14
630.315	1169.56
634.242	692.91
638.167	611.99
642.09	473.654
646.012	591.225
649.931	519.948
653.849	458.563
657.765	277.033
661.679	129.358
665.592	31.529
669.502	33.929
673.411	64.405
677.318	74.378
681.223	48.177
685.126	50.552
689.028	60.472
692.927	16.072
696.825	7.917
700.721	221.679
704.616	384.322
708.508	318.854
712.399	168.281
716.288	225.608
720.175	333.837
724.06	649.974
727.944	1200.02
731.825	2004.98
735.705	3309.86
739.584	3953.67
743.46	3194.43
747.334	2018.17
751.207	1245.89
755.078	843.052
758.947	660.206
762.815	608.789
766.68	775.605
770.544	722.063
774.406	555.194
778.267	363.783
782.125	327.138
785.982	371.455
789.837	471.735
793.69	770.984
797.542	1112.21
801.391	974.416
805.239	551.605
809.085	173.779
812.93	89.942
816.772	42.931
820.613	82.34
824.452	6.185
828.29	22.041
832.125	29.278
835.959	39.083
839.791	6.563
843.621	16.715
847.45	19.995
851.277	150.76
855.102	188.966
858.925	376.737
862.746	411.72
866.566	292.845
870.384	162.084
874.2	128.85
878.015	112.292
881.828	130.52
885.639	154.248
889.448	209.107
893.256	358.099
897.061	496.227
900.865	271.493
904.668	171.899
908.468	185.452
912.267	107.184
916.064	86.163
919.86	15.58
923.653	20.138
927.445	16.576
931.236	106.141
935.024	59.133
938.811	152.339
942.596	123.712
946.379	193.25
950.161	318.954
953.94	467.828
957.719	542.87
961.495	768.082
965.27	1007.88
969.043	1381.03
972.814	1784.77
976.583	2703.16
980.351	4441.48
984.117	6171.3
987.882	6075.37
991.644	5669.93
995.405	7961.98
999.165	15976.4
1002.92	38603.5
1006.68	51418.6
1010.43	25504.3
1014.18	11852.4
1017.93	6610.84
1021.68	4559.41
1025.43	3419.15
1029.18	2652.04
1032.92	2416.08
1036.66	2397.27
1040.4	2810.61
1044.14	3008.09
1047.88	2258.74
1051.62	1423.54
1055.35	1060.57
1059.08	922.669
1062.81	1225.79
1066.54	2212.19
1070.27	4736.06
1073.99	8229.88
1077.72	5166.02
1081.44	2058.86
1085.16	1048.44
1088.88	646.747
1092.59	390.991
1096.31	195.254
1100.02	108.652
1103.73	186.092
1107.44	118.598
1111.15	260.176
1114.86	277.979
1118.57	750.699
1122.27	2129.49
1125.97	4230.35
1129.67	1890.26
1133.37	670.202
1137.07	478.187
1140.76	485.193
1144.45	184.25
1148.15	32.325
1151.84	32.732
1155.53	55.858
1159.21	6.95
1162.9	30.724
1166.58	10.522
1170.26	129.357
1173.94	226.223
1177.62	234.935
1181.3	408.414
1184.97	567.798
1188.65	567.987
1192.32	265.464
1195.99	213.923
1199.66	72.283
1203.33	65.154
1206.99	36.299
1210.65	9.024
1214.32	7.012
1217.98	9.848
1221.64	15.304
1225.29	16.985
1228.95	8.637
1232.6	78.737
1236.26	42.84
1239.91	99.864
1243.56	138.704
1247.2	83.404
1250.85	125.961
1254.49	94.188
1258.13	136.325
1261.78	142.577
1265.41	190.308
1269.05	300.101
1272.69	263.663
1276.32	318.816
1279.95	324.389
1283.59	247.575
1287.21	119.027
1290.84	131.146
1294.47	237.056
1298.09	293.478
1301.72	205.883
1305.34	202.211
1308.96	225.476
1312.58	313.663
1316.19	379.685
1319.81	382.732
1323.42	339.321
1327.03	230.574
1330.64	192.429
1334.25	104.482
1337.86	44.523
1341.46	27.269
1345.07	45.915
1348.67	59.774
1352.27	81.187
1355.87	89.167
1359.46	16.995
1363.06	34.676
1366.65	69.575
1370.25	118.827
1373.84	79.329
1377.43	118.27
1381.02	138.607
1384.6	172.459
1388.18	227.792
1391.77	182.72
1395.35	144.677
1398.93	129.385
1402.51	52.262
1406.08	25.979
1409.66	81.852
1413.23	47.889
1416.8	46.295
1420.37	60.027
1423.94	0.141
1427.51	1.873
