Measurement: Raman, 514 nm, ccw, Raman Data Processed
Mineral: Vayrynenite
Rruff sample: R050243
Ideal chemistry: Mn^2+^Be(PO_4_)OH
Locality: Viitaniemi pegmatite, Erajarvi, Orivesi, Finland
Source: Marcus Origlieri
Description: Pink massive with defined cleavage planes
Measured chemistry: (Mn^2+^_0.95_Fe^2+^_0.05_)_Σ=1_Be_1.00_(P_1.00_O_4_)((OH)_0.94_F_0.06_)_Σ=1_ ; Be not measured but estimated by difference and charge balance.
Pin_id: M00437
Orientation: Laser parallel to a* (1 0 0). Fiducial mark perpendicular to laser is parallel to -b [0 -1 0]
Raman shift (cm-1)	intensity
80.125	0
84.311	258.446
88.496	1322.02
92.678	3091.43
96.858	1632.09
101.036	513.15
105.212	299.335
109.387	547.663
113.559	578.99
117.729	1486.39
121.897	2946.16
126.063	2345.02
130.228	728.518
134.39	246.842
138.55	29.372
142.709	10.034
146.865	92.545
151.019	101.565
155.171	20.807
159.322	473.906
163.47	796.35
167.617	667.153
171.761	508.578
175.904	961.948
180.044	3443.4
184.183	4748.26
188.319	1889.07
192.454	504.719
196.586	216.07
200.717	151.938
204.846	224.253
208.972	520.592
213.097	733.886
217.22	848.113
221.341	731.255
225.46	696.279
229.577	1841.23
233.692	2112.13
237.805	571.979
241.916	50.78
246.025	29.429
250.132	27.563
254.237	24.708
258.34	35.298
262.442	198.988
266.541	164.4
270.639	82.639
274.734	28.741
278.828	67.43
282.919	207.343
287.009	239.127
291.097	71.671
295.183	17.039
299.266	22.101
303.348	17.151
307.428	32.779
311.507	55.161
315.583	88.434
319.657	178.257
323.729	461.937
327.8	1004.31
331.868	1421.62
335.935	1813.39
339.999	1596.99
344.062	1584.34
348.123	2280.51
352.182	2673.59
356.239	1838.3
360.294	1083.74
364.347	881.495
368.398	1214.98
372.448	2263.97
376.495	4218.07
380.54	4734.17
384.584	2847.21
388.626	1533.19
392.666	926.106
396.704	975.952
400.74	1649.73
404.774	1620.39
408.806	820.887
412.836	356.271
416.865	121.677
420.891	24.173
424.916	26.921
428.939	7.89
432.959	2.864
436.978	105.806
440.996	103.567
445.011	104.078
449.024	273.467
453.036	651.035
457.045	1712.5
461.053	2732.94
465.059	1963.12
469.063	707.994
473.065	238.678
477.065	110.555
481.063	12.114
485.06	53.302
489.054	68.376
493.047	243.347
497.038	559.227
501.027	1642.02
505.014	3801.23
508.999	2842.17
512.982	977.181
516.964	415.177
520.944	301.836
524.921	384.322
528.897	734.519
532.871	2199.33
536.844	3750.93
540.814	2090.12
544.783	709.889
548.749	305.521
552.714	190.015
556.677	184.373
560.638	217.592
564.597	337.679
568.555	572.694
572.511	655.781
576.464	574.86
580.416	652.096
584.366	1028.26
588.315	1870.38
592.261	4501.5
596.206	8678.39
600.148	7385.69
604.089	3911.84
608.028	2425.25
611.965	3230.55
615.901	6387.8
619.834	6022.11
623.766	2803.43
627.696	1491.71
631.624	887.933
635.551	605.067
639.475	448.458
643.398	428.833
647.318	472.357
651.237	376.023
655.155	221.571
659.07	193
662.984	37.801
666.895	12.563
670.805	8.07
674.713	52.751
678.62	64.244
682.524	56.886
686.427	47.114
690.328	22.196
694.227	38.021
698.124	190.51
702.02	332.886
705.913	426.16
709.805	338.336
713.695	252.417
717.584	362.405
721.47	528.305
725.355	865.118
729.238	1515.84
733.119	2774.49
736.998	4032.05
740.876	3984.55
744.752	2753.98
748.626	1870.37
752.498	1167.7
756.368	833.979
760.237	743.19
764.104	729.34
767.969	804.481
771.832	657.257
775.693	483.37
779.553	379.297
783.411	359.174
787.267	453.004
791.122	540.791
794.974	888.542
798.825	1175.26
802.674	769.958
806.522	364.622
810.367	216.26
814.211	114.876
818.053	66.285
821.893	26.21
825.732	8.522
829.568	29.714
833.403	26.963
837.236	18.115
841.068	24.031
844.898	64.231
848.726	59.316
852.552	47.354
856.376	200.096
860.199	415.987
864.02	371.98
867.839	209.065
871.656	100.235
875.472	29.493
879.286	56.843
883.098	118.288
886.909	192.83
890.717	280.472
894.524	363.218
898.33	374.07
902.133	278.031
905.935	170.104
909.735	131.291
913.533	83.651
917.33	16.252
921.124	38.965
924.918	7.064
928.709	31.002
932.499	87.228
936.286	132.656
940.073	151.261
943.857	200.018
947.64	323.582
951.421	389.943
955.2	498.116
958.978	633.778
962.753	922.888
966.527	1199.5
970.3	1638.26
974.071	2203.23
977.84	3363.75
981.607	5385.33
985.372	6713.55
989.136	6057.59
992.898	6592.71
996.659	10215.5
1000.42	23141.3
1004.17	51470.5
1007.93	44159.6
1011.68	19884
1015.43	10021.7
1019.18	5919.78
1022.93	4144.03
1026.68	3298.41
1030.42	2713.94
1034.17	2537.6
1037.91	2858.4
1041.65	3097.34
1045.39	3001.42
1049.12	2029.65
1052.86	1352.03
1056.59	1088.57
1060.33	1152.41
1064.06	1520.66
1067.78	3125.83
1071.51	6874.1
1075.23	8571.1
1078.96	4107.45
1082.68	1751.52
1086.4	893.233
1090.12	502.203
1093.83	319.875
1097.55	222.634
1101.26	158.495
1104.97	155.515
1108.68	243.508
1112.39	222.639
1116.1	393.569
1119.8	939.76
1123.5	2911.01
1127.2	3485.33
1130.9	1278.71
1134.6	556.148
1138.3	450.65
1141.99	398.196
1145.69	106.814
1149.38	25.59
1153.07	49.116
1156.76	32.702
1160.44	27.283
1164.13	84.157
1167.81	124.64
1171.49	162.166
1175.17	280.73
1178.85	396.147
1182.52	564.438
1186.2	694.651
1189.87	471.159
1193.54	276.723
1197.21	105.063
1200.88	107.027
1204.55	49.491
1208.21	29.955
1211.88	65.858
1215.54	42.062
1219.2	1.313
1222.86	12.631
1226.51	19.027
1230.17	26.378
1233.82	4.26
1237.47	67.936
1241.12	55.698
1244.77	68.986
1248.42	32.692
1252.06	67.24
1255.71	64.593
1259.35	17.835
1262.99	88.933
1266.63	116.042
1270.26	134.983
1273.9	200.948
1277.53	177.669
1281.16	106.922
1284.8	150.561
1288.42	97.435
1292.05	150.212
1295.68	160.81
1299.3	197.473
1302.92	75.859
1306.55	198.189
1310.16	150.471
1313.78	289.665
1317.4	227.708
1321.01	272.481
1324.62	266.5
1328.24	127.88
1331.85	22.613
1335.45	16.664
1339.06	44.867
1342.66	6.739
1346.27	4.091
1349.87	22.8
1353.47	23.632
1357.07	29.27
1360.66	29.817
1364.26	80.348
1367.85	68.015
1371.44	78.176
1375.04	61.716
1378.62	161.327
1382.21	116.821
1385.8	279.779
1389.38	166.789
1392.96	122.856
1396.54	89.609
1400.12	106.641
1403.7	47.314
1407.28	41.983
1410.85	49.916
1414.42	7.046
1417.99	34.313
1421.56	105.62
1425.13	32.72
1428.7	1.784
