Measurement: Raman, 514 nm, ccw, Raman Data Processed
Mineral: Vayrynenite
Rruff sample: R050243
Ideal chemistry: Mn^2+^Be(PO_4_)OH
Locality: Viitaniemi pegmatite, Erajarvi, Orivesi, Finland
Source: Marcus Origlieri
Description: Pink massive with defined cleavage planes
Measured chemistry: (Mn^2+^_0.95_Fe^2+^_0.05_)_Σ=1_Be_1.00_(P_1.00_O_4_)((OH)_0.94_F_0.06_)_Σ=1_ ; Be not measured but estimated by difference and charge balance.
Pin_id: M00427
Orientation: Laser parallel to b* (0 1 0). Fiducial mark perpendicular to laser is parallel to c [0 0 1]
Raman shift (cm-1)	intensity
56.365	0
60.563	14.685
64.758	2.11
68.952	8.648
73.144	120.129
77.333	317.564
81.521	465.028
85.706	890.537
89.89	1839.86
94.071	4165.17
98.251	1715.8
102.428	979.14
106.604	1301.61
110.777	1873.9
114.949	1414.93
119.119	1910.77
123.286	3065.18
127.452	2723.85
131.615	1159.65
135.777	685.515
139.937	600.323
144.094	537.351
148.25	480.496
152.403	379.996
156.555	468.948
160.705	510.494
164.853	777.119
168.998	588.914
173.142	602.582
177.284	1315.37
181.424	2948.18
185.562	5160.26
189.698	1840.53
193.831	741.211
197.963	513.279
202.093	449.727
206.221	532.001
210.347	672.723
214.472	859.272
218.594	1259.2
222.714	1334.43
226.832	1630.89
230.948	3231.65
235.063	5199.03
239.175	1207.3
243.286	401.469
247.394	190.402
251.501	214.01
255.605	320.219
259.708	699.082
263.808	1406.99
267.907	1422.06
272.004	540.656
276.099	184.952
280.192	130.849
284.283	82.225
288.372	20.943
292.459	27.277
296.544	7.762
300.627	8.051
304.709	37.57
308.788	29.316
312.865	132.299
316.941	305.516
321.015	739.962
325.086	1821.63
329.156	3393.5
333.224	3453.57
337.29	1807.82
341.354	1007.22
345.416	777.767
349.476	788.483
353.534	811.426
357.591	596.627
361.645	495.133
365.698	513.949
369.748	877.119
373.797	1843.58
377.844	3524.2
381.889	3932.98
385.932	2148.9
389.973	1064.86
394.012	555.098
398.049	407.868
402.084	515.81
406.118	529.748
410.15	214.842
414.179	48.08
418.207	44.45
422.233	13.065
426.257	53.554
430.279	47.143
434.299	79.858
438.318	34.075
442.334	29.711
446.349	30.754
450.361	49.158
454.372	234.672
458.381	630.992
462.388	1281.42
466.394	935.515
470.397	410.55
474.398	166.792
478.398	95.742
482.396	109.39
486.391	159.736
490.385	363.108
494.377	688.501
498.368	1567.91
502.356	4349.62
506.342	9726.05
510.327	6633.49
514.31	1987.19
518.291	764.119
522.27	386.59
526.247	160.176
530.222	163.769
534.196	239.345
538.167	310.909
542.137	220.286
546.105	118.187
550.071	85.68
554.035	57.064
557.998	75.314
561.958	164.451
565.917	249.495
569.874	431.443
573.829	463.29
577.782	373.033
581.733	417.836
585.683	624.748
589.63	1179.02
593.576	2652.08
597.52	5371.76
601.462	6423.97
605.402	4004.67
609.341	1835.22
613.277	1225.01
617.212	1300.71
621.145	1161.31
625.076	657.818
629.006	592.216
632.933	651.5
636.859	1001.67
640.783	1367.72
644.705	980.648
648.625	536.457
652.543	289.144
656.46	221.707
660.375	52.142
664.288	59.422
668.199	24.489
672.108	30.717
676.016	35.323
679.921	30.151
683.825	54.155
687.727	0.046
691.628	76.612
695.526	84.762
699.423	93.892
703.318	242.456
707.211	259.433
711.102	211.377
714.992	201.364
718.879	299.731
722.765	513.964
726.649	797.064
730.532	1393.03
734.412	2424.87
738.291	3287.6
742.168	3184.27
746.043	2238.92
749.916	1453.58
753.788	1002.24
757.658	779.855
761.526	609.445
765.392	492.958
769.257	469.365
773.119	484.668
776.98	438.87
780.839	427.973
784.697	565.98
788.552	672.895
792.406	1107.72
796.258	1802.46
800.108	2108.11
803.957	1417.69
807.804	777.186
811.649	452.61
815.492	302.104
819.333	178.53
823.173	162.798
827.011	94.594
830.847	30.937
834.681	25.19
838.514	51.551
842.345	40.792
846.174	31.786
850.001	80.412
853.827	49.012
857.651	43.125
861.473	84.253
865.293	98.422
869.112	17.64
872.928	29.891
876.744	42.174
880.557	50.493
884.369	139.85
888.178	239.25
891.987	458.696
895.793	601.19
899.598	526.737
903.401	419.346
907.202	274.015
911.001	173.802
914.799	125.68
918.595	68.638
922.389	115.698
926.182	55.83
929.972	89.05
933.761	167.391
937.549	213.819
941.334	184.351
945.118	223.021
948.9	343.865
952.681	374.645
956.459	494.6
960.236	599.651
964.012	853.827
967.785	1217.23
971.557	1456.88
975.327	2026.72
979.095	3161.75
982.862	5051.03
986.627	6083.64
990.39	5366.3
994.152	6401.7
997.912	10930.6
1001.67	26036.6
1005.43	50308.4
1009.18	35309.7
1012.93	15737.7
1016.68	8120.9
1020.43	5094.19
1024.18	3548.16
1027.93	2691.13
1031.67	2307.77
1035.42	2080.55
1039.16	2138.44
1042.9	2268.48
1046.63	1737.64
1050.37	1117.61
1054.11	753.041
1057.84	640.443
1061.57	605.035
1065.3	899.103
1069.03	1538.7
1072.75	3125.13
1076.47	3058.77
1080.2	1575.83
1083.92	714.248
1087.64	424.812
1091.36	322.719
1095.07	354.332
1098.79	454.633
1102.5	531.982
1106.21	557.21
1109.92	556.615
1113.62	980.604
1117.33	1827.67
1121.04	4757.02
1124.74	13343.5
1128.44	10740.3
1132.14	3556.14
1135.83	1513.7
1139.53	900.808
1143.22	461.552
1146.92	313.645
1150.61	232.088
1154.3	86.951
1157.98	31.865
1161.67	82.852
1165.35	55.67
1169.04	122.198
1172.72	98.91
1176.4	88.263
1180.07	135.172
1183.75	144.462
1187.42	160.873
1191.1	78.306
1194.77	22.66
1198.44	32.491
1202.1	6.103
1205.77	13.299
1209.43	13.093
1213.1	23.697
1216.76	1.476
1220.42	33.381
1224.07	27.504
1227.73	20.58
1231.38	18.565
1235.04	5.215
1238.69	4.587
1242.34	16.715
1245.99	17.97
1249.63	21.102
1253.28	24.513
1256.92	16.256
1260.56	22.139
1264.2	68.241
1267.84	50.389
1271.48	11.614
1275.11	93.822
1278.74	90.916
1282.38	105.669
1286.01	5.244
1289.63	17.562
1293.26	86.596
1296.89	91.396
1300.51	72.993
1304.13	49.323
1307.75	47.448
1311.37	119.357
1314.99	110.071
1318.6	105.553
1322.22	66.844
1325.83	17.938
1329.44	84.822
1333.05	46.5
1336.66	24.953
1340.26	36.312
1343.87	76.551
1347.47	59.176
1351.07	55.145
1354.67	84.656
1358.27	48.671
1361.86	48.984
1365.46	97.722
1369.05	67.092
1372.64	93.882
1376.23	71.989
1379.82	99.131
1383.41	77.948
1386.99	16.25
1390.57	35.692
1394.16	181.605
1397.74	136.26
1401.32	91.883
1404.89	44.031
1408.47	101.034
1412.04	87.04
1415.61	89.462
1419.18	66.038
1422.75	133.075
1426.32	89.459
1429.89	127.56
1433.45	100.443
1437.01	265.507
1440.58	206.88
1444.13	244.628
1447.69	350.738
1451.25	369.004
1454.81	373.021
1458.36	416.371
1461.91	437.021
1465.46	340.021
1469.01	247.138
1472.56	277.695
1476.1	226.676
1479.64	184.913
1483.19	204.511
1486.73	229.385
1490.27	109.573
1493.81	38.04
1497.34	143.795
1500.88	2.866
1504.41	151.475
1507.94	104.724
1511.47	9.25
1515	43.218
1518.53	39.66
1522.05	73.199
1525.57	0
