Measurement: Raman, 514 nm, ccw, Raman Data Processed
Mineral: Vayrynenite
Rruff sample: R050243
Ideal chemistry: Mn^2+^Be(PO_4_)OH
Locality: Viitaniemi pegmatite, Erajarvi, Orivesi, Finland
Source: Marcus Origlieri
Description: Pink massive with defined cleavage planes
Measured chemistry: (Mn^2+^_0.95_Fe^2+^_0.05_)_Σ=1_Be_1.00_(P_1.00_O_4_)((OH)_0.94_F_0.06_)_Σ=1_ ; Be not measured but estimated by difference and charge balance.
Pin_id: M00437
Orientation: Laser parallel to a* (1 0 0). Fiducial mark perpendicular to laser is parallel to -b [0 -1 0]
Raman shift (cm-1)	intensity
81.521	0
85.706	263.264
89.89	545.443
94.071	831.13
98.251	497.502
102.428	411.423
106.604	424.197
110.777	469.63
114.949	707.969
119.119	1668.38
123.286	2650.66
127.452	1597.07
131.615	483.83
135.777	103.806
139.937	14.685
144.094	47.1
148.25	86.746
152.403	50.959
156.555	311.505
160.705	1451.84
164.853	1466.12
168.998	737.31
173.142	830.297
177.284	1819.32
181.424	5016.52
185.562	4485.18
189.698	1434.13
193.831	477.257
197.963	217.424
202.093	218.151
206.221	322.718
210.347	629.805
214.472	813.887
218.594	972.417
222.714	849.858
226.832	1667.2
230.948	4674.49
235.063	3546.74
239.175	808.001
243.286	246.329
247.394	10.854
251.501	18.261
255.605	11.24
259.708	82.694
263.808	160.652
267.907	104.056
272.004	32.321
276.099	21.304
280.192	32.438
284.283	56.914
288.372	1.877
292.459	52.866
296.544	64.186
300.627	66.147
304.709	44.194
308.788	30.021
312.865	50.249
316.941	113.443
321.015	221.116
325.086	514.841
329.156	908.406
333.224	1143.63
337.29	1261.59
341.354	1474.33
345.416	1916.72
349.476	2843.84
353.534	2885.6
357.591	1529.86
361.645	904.95
365.698	769.996
369.748	1083.67
373.797	2087.43
377.844	3299.43
381.889	2928.54
385.932	1554.67
389.973	906.439
394.012	702.475
398.049	911.349
402.084	1410.68
406.118	1010.39
410.15	451.371
414.179	223.076
418.207	123.757
422.233	63.447
426.257	113.064
430.279	137.792
434.299	162.211
438.318	219.617
442.334	435.441
446.349	677.624
450.361	1318.43
454.372	2979.33
458.381	7038.75
462.388	9201.72
466.394	5056.01
470.397	2020.19
474.398	928.411
478.398	476.733
482.396	361.083
486.391	338.543
490.385	378.895
494.377	730.141
498.368	1657.28
502.356	4870.32
506.342	8532.54
510.327	4609.16
514.31	1629.74
518.291	726.586
522.27	368.209
526.247	271.988
530.222	416.87
534.196	1133.9
538.167	1348.06
542.137	524.271
546.105	208.907
550.071	80.51
554.035	51.904
557.998	66.186
561.958	159.144
565.917	169.907
569.874	251.499
573.829	261.976
577.782	390.157
581.733	505.654
585.683	989.243
589.63	2155.06
593.576	5592.88
597.52	8013.6
601.462	5173.27
605.402	2824.82
609.341	2475.25
613.277	4649.62
617.212	7890.05
621.145	5639.57
625.076	2821.1
629.006	1661.57
632.933	864.907
636.859	619.11
640.783	498.16
644.705	526.386
648.625	587.777
652.543	537.347
656.46	383.76
660.375	202.015
664.288	41.11
668.199	16.046
672.108	34.67
676.016	79.798
679.921	93.595
683.825	65.871
687.727	52.318
691.628	121.389
695.526	2.182
699.423	12.354
703.318	188.289
707.211	179.93
711.102	157.428
714.992	198.202
718.879	407.614
722.765	824.136
726.649	1262.28
730.532	2360.4
734.412	3931.41
738.291	5061.34
742.168	4538.18
746.043	3044.94
749.916	2039.61
753.788	1288.21
757.658	1009.72
761.526	1065.16
765.392	1101.53
769.257	1182.03
773.119	962.528
776.98	749.338
780.839	522.688
784.697	534.746
788.552	597.753
792.406	1056.71
796.258	1685.63
800.108	1765.51
803.957	1202.36
807.804	582.174
811.649	350.968
815.492	214.743
819.333	77.456
823.173	55.768
827.011	110.498
830.847	36.226
834.681	28.08
838.514	21.149
842.345	23.148
846.174	72.838
850.001	65.466
853.827	165.814
857.651	225.775
861.473	430.144
865.293	372.832
869.112	212.611
872.928	172.652
876.744	123.831
880.557	153.145
884.369	325.593
888.178	548.179
891.987	801.907
895.793	914.779
899.598	810.802
903.401	574.978
907.202	356.312
911.001	316.806
914.799	140.478
918.595	109.418
922.389	27.536
926.182	45.229
929.972	18.21
933.761	78.935
937.549	131.952
941.334	197.184
945.118	234.601
948.9	264.205
952.681	471.009
956.459	614.009
960.236	842.202
964.012	1174.59
967.785	1468.18
971.557	2091.97
975.327	3116.04
979.095	5742.49
982.862	8984.33
986.627	9675.64
990.39	7051.19
994.152	7084.64
997.912	11214.6
1001.67	26712.7
1005.43	47075.4
1009.18	29460.4
1012.93	13041.7
1016.68	7116.66
1020.43	4445.77
1024.18	3210.13
1027.93	2703.66
1031.67	2256.37
1035.42	2429.25
1039.16	2892.3
1042.9	3462.52
1046.63	2915.95
1050.37	1814.61
1054.11	1064.45
1057.84	974.504
1061.57	1142.38
1065.3	2009.99
1069.03	4180.87
1072.75	8189.37
1076.47	6940.95
1080.2	2871.23
1083.92	1282.28
1087.64	805.335
1091.36	401.676
1095.07	208.126
1098.79	140.73
1102.5	82.528
1106.21	108.272
1109.92	142.102
1113.62	226.093
1117.33	364.291
1121.04	1339.35
1124.74	3755.47
1128.44	2914.66
1132.14	1031.92
1135.83	878.216
1139.53	1415.58
1143.22	1043.99
1146.92	325.403
1150.61	91.821
1154.3	36.832
1157.98	112.774
1161.67	83.879
1165.35	34.073
1169.04	182.741
1172.72	292.597
1176.4	338.487
1180.07	651.961
1183.75	892.168
1187.42	910.865
1191.1	571.081
1194.77	307.711
1198.44	137.05
1202.1	24.795
1205.77	63.903
1209.43	41.633
1213.1	15.592
1216.76	70.141
1220.42	40.131
1224.07	13.5
1227.73	10.507
1231.38	47.181
1235.04	133.108
1238.69	151.383
1242.34	75.508
1245.99	27.302
1249.63	137.705
1253.28	183.808
1256.92	109.677
1260.56	64.811
1264.2	235.118
1267.84	210.857
1271.48	305.121
1275.11	341.669
1278.74	380.298
1282.38	278.499
1286.01	241.177
1289.63	235.735
1293.26	187.751
1296.89	315.055
1300.51	274.461
1304.13	208.319
1307.75	243.69
1311.37	323.973
1314.99	340.986
1318.6	395.007
1322.22	425.541
1325.83	269.944
1329.44	286.573
1333.05	83.217
1336.66	2.465
1340.26	1.184
1343.87	21.892
1347.47	36.925
1351.07	133.541
1354.67	141.246
1358.27	146.658
1361.86	155.867
1365.46	64.02
1369.05	75.34
1372.64	97.32
1376.23	148.675
1379.82	132.316
1383.41	253.806
1386.99	219.91
1390.57	182.559
1394.16	256.19
1397.74	159.251
1401.32	99.091
1404.89	72.825
1408.47	90.477
1412.04	79.401
1415.61	75.007
1419.18	108.448
1422.75	84.981
1426.32	51.11
1429.89	29.891
1433.45	13.146
