Measurement: Raman, 514 nm, ccw, Raman Data Processed
Mineral: Vayrynenite
Rruff sample: R050243
Ideal chemistry: Mn^2+^Be(PO_4_)OH
Locality: Viitaniemi pegmatite, Erajarvi, Orivesi, Finland
Source: Marcus Origlieri
Description: Pink massive with defined cleavage planes
Measured chemistry: (Mn^2+^_0.95_Fe^2+^_0.05_)_Σ=1_Be_1.00_(P_1.00_O_4_)((OH)_0.94_F_0.06_)_Σ=1_ ; Be not measured but estimated by difference and charge balance.
Pin_id: M00471
Orientation: Laser parallel to c* (0 0 1). Fiducial mark perpendicular to laser is parallel to a [1 0 0]
Raman shift (cm-1)	intensity
77.333	0
81.521	42.716
85.706	475.207
89.89	1452.64
94.071	2072.48
98.251	1348.95
102.428	313.338
106.604	306.307
110.777	466.905
114.949	736.814
119.119	1650.07
123.286	2118.42
127.452	1903.7
131.615	609.513
135.777	115.289
139.937	71.055
144.094	50.296
148.25	28.156
152.403	33.437
156.555	44.756
160.705	86.746
164.853	200.318
168.998	304.443
173.142	477.57
177.284	1649.93
181.424	3268.95
185.562	4284.69
189.698	2297.91
193.831	706.902
197.963	305.994
202.093	199.287
206.221	213.728
210.347	396.296
214.472	354.98
218.594	471.761
222.714	460.614
226.832	262.545
230.948	335.564
235.063	421.67
239.175	137.86
243.286	31.015
247.394	29.177
251.501	12.84
255.605	70.269
259.708	265.859
263.808	501.187
267.907	629.216
272.004	265.251
276.099	92.61
280.192	27.885
284.283	55.065
288.372	106.315
292.459	19.614
296.544	49.086
300.627	59.903
304.709	24.897
308.788	22.049
312.865	1.647
316.941	57.379
321.015	202.321
325.086	583.946
329.156	1093.49
333.224	1422.93
337.29	1262.39
341.354	901.847
345.416	494.303
349.476	311.782
353.534	282.088
357.591	285.098
361.645	406.123
365.698	656.265
369.748	1327.6
373.797	2906.05
377.844	4866.63
381.889	5473.26
385.932	3470.92
389.973	1740.6
394.012	928.301
398.049	632.019
402.084	480.753
406.118	447.484
410.15	338.923
414.179	155.848
418.207	98.005
422.233	29.824
426.257	18.376
430.279	18.646
434.299	35.014
438.318	103.654
442.334	167.098
446.349	265.509
450.361	523.09
454.372	1427.48
458.381	3204.72
462.388	4816.61
466.394	3933.9
470.397	1654.15
474.398	668.956
478.398	256.898
482.396	130.424
486.391	91.939
490.385	105.441
494.377	153.932
498.368	401.41
502.356	1109.88
506.342	2103.79
510.327	2388.07
514.31	1670.16
518.291	1154.26
522.27	471.967
526.247	288.198
530.222	439.66
534.196	1216.09
538.167	2152.2
542.137	1628.8
546.105	656.208
550.071	310.579
554.035	182.894
557.998	192.152
561.958	401.358
565.917	708.524
569.874	1108.67
573.829	1177.78
577.782	710.858
581.733	412.863
585.683	341.637
589.63	461.561
593.576	879.379
597.52	1400.13
601.462	1560.81
605.402	1555.43
609.341	2217.99
613.277	4916.47
617.212	8961.96
621.145	8493.52
625.076	4214.15
629.006	1861.85
632.933	904.572
636.859	578.239
640.783	465.833
644.705	407.35
648.625	262.789
652.543	203.15
656.46	144.522
660.375	39.725
664.288	70.828
668.199	1.877
672.108	10.095
676.016	64.351
679.921	40.457
683.825	2.083
687.727	14.401
691.628	23.464
695.526	68.176
699.423	172.097
703.318	282.806
707.211	353.119
711.102	314.379
714.992	225.848
718.879	284.588
722.765	542.214
726.649	845.13
730.532	1552.96
734.412	2639.7
738.291	3630.37
742.168	3593.97
746.043	2577.51
749.916	1561
753.788	1048.41
757.658	664.742
761.526	553.006
765.392	507.201
769.257	442.405
773.119	390.39
776.98	297.386
780.839	213.316
784.697	314.182
788.552	347.985
792.406	349.726
796.258	319.407
800.108	281.032
803.957	172.601
807.804	135.118
811.649	50.582
815.492	51.685
819.333	4.877
823.173	18.869
827.011	1.216
830.847	8.801
834.681	19.861
838.514	17.552
842.345	17.62
846.174	40.257
850.001	1.04
853.827	3.75
857.651	8.467
861.473	61.188
865.293	98.941
869.112	0.72
872.928	13.479
876.744	7.334
880.557	33.166
884.369	54.044
888.178	39.97
891.987	174.948
895.793	191.981
899.598	186.072
903.401	157.231
907.202	129.463
911.001	145.776
914.799	180.187
918.595	169.712
922.389	145.312
926.182	194.99
929.972	389.752
933.761	542.661
937.549	555.674
941.334	599.79
945.118	607.005
948.9	639.316
952.681	793.723
956.459	1043.23
960.236	1348.83
964.012	1842.46
967.785	2592.35
971.557	3547.04
975.327	5508.25
979.095	9854.2
982.862	16613.9
986.627	19067
990.39	12887
994.152	9706.63
997.912	12491
1001.67	26652.1
1005.43	50622
1009.18	39985.2
1012.93	19168.7
1016.68	9836.36
1020.43	6064.86
1024.18	4187.28
1027.93	3172
1031.67	2440.2
1035.42	2116.52
1039.16	1954.99
1042.9	1752.58
1046.63	1402.34
1050.37	948.817
1054.11	620.322
1057.84	485.675
1061.57	439.183
1065.3	565.896
1069.03	877.491
1072.75	1610.22
1076.47	1649.08
1080.2	789.61
1083.92	450.361
1087.64	284.575
1091.36	252.547
1095.07	104.045
1098.79	112.738
1102.5	47.473
1106.21	66.162
1109.92	121.104
1113.62	128.198
1117.33	303.021
1121.04	783.442
1124.74	2489.15
1128.44	2446.68
1132.14	1116.03
1135.83	1219.52
1139.53	2136.31
1143.22	2213.52
1146.92	1131.7
1150.61	511.971
1154.3	228.132
1157.98	69.615
1161.67	49.891
1165.35	24.511
1169.04	61.657
1172.72	119.724
1176.4	109.861
1180.07	181.011
1183.75	203.643
1187.42	180.11
1191.1	162.624
1194.77	51.317
1198.44	90.023
1202.1	6.156
1205.77	42.214
1209.43	98.032
1213.1	54.134
1216.76	44.954
1220.42	24.443
1224.07	1.175
1227.73	21.645
1231.38	36.736
1235.04	24.077
1238.69	3.182
1242.34	3.148
1245.99	10.059
1249.63	41.4
1253.28	20.713
1256.92	8.201
1260.56	100.156
1264.2	4.28
1267.84	58.688
1271.48	36.895
1275.11	28.728
1278.74	84.19
1282.38	118.483
1286.01	17.381
1289.63	7.075
1293.26	4.001
1296.89	69.616
1300.51	5.827
1304.13	30.703
1307.75	68.754
1311.37	121.23
1314.99	128.652
1318.6	139.23
1322.22	121.585
1325.83	105.278
1329.44	133.867
1333.05	80.646
1336.66	20.509
1340.26	48.012
1343.87	49.529
1347.47	37.342
1351.07	146.507
1354.67	156.494
1358.27	92.959
1361.86	144.752
1365.46	4.078
1369.05	119.193
1372.64	64.591
1376.23	78.48
1379.82	95.343
1383.41	154.483
1386.99	112.147
1390.57	126.486
1394.16	127.854
1397.74	72.331
1401.32	35.585
1404.89	62.567
1408.47	48.642
1412.04	32.918
1415.61	20.904
1419.18	41.585
1422.75	3.283
1426.32	11.586
1429.89	21.844
1433.45	11.169
