Measurement: Raman, 514 nm, ccw, Raman Data Processed
Mineral: Vayrynenite
Rruff sample: R050243
Ideal chemistry: Mn^2+^Be(PO_4_)OH
Locality: Viitaniemi pegmatite, Erajarvi, Orivesi, Finland
Source: Marcus Origlieri
Description: Pink massive with defined cleavage planes
Measured chemistry: (Mn^2+^_0.95_Fe^2+^_0.05_)_Σ=1_Be_1.00_(P_1.00_O_4_)((OH)_0.94_F_0.06_)_Σ=1_ ; Be not measured but estimated by difference and charge balance.
Pin_id: M00471
Orientation: Laser parallel to c* (0 0 1). Fiducial mark perpendicular to laser is parallel to a [1 0 0]
Raman shift (cm-1)	intensity
74.54	0
78.729	159.697
82.916	385.236
87.101	1005.97
91.284	2743.99
95.465	3163.72
99.644	876.316
103.82	530.088
107.995	730.084
112.168	620.627
116.339	1050.23
120.508	2720.45
124.675	2878.4
128.84	971.67
133.003	267.893
137.164	54.078
141.323	47.275
145.48	33.406
149.635	34.801
153.788	79.787
157.939	29.013
162.088	192.132
166.235	250.158
170.38	352.166
174.523	731.282
178.664	2319.27
182.803	5823.47
186.94	4012.92
191.076	1245.15
195.209	437.238
199.34	237.002
203.47	196.823
207.597	258.754
211.722	361.783
215.846	464.888
219.967	592.032
224.087	366.22
228.204	312.469
232.32	543.786
236.434	271.168
240.545	17.115
244.655	57.859
248.763	26.006
252.869	35.605
256.973	211.337
261.075	620.832
265.175	921.056
269.273	537.289
273.369	114.516
277.463	29.445
281.556	31.71
285.646	97.305
289.734	38.684
293.821	50.963
297.905	19.789
301.988	63.859
306.069	88.202
310.147	23.859
314.224	15.116
318.299	152.746
322.372	470.62
326.443	1249.49
330.512	2038.21
334.579	2105.91
338.645	1503.59
342.708	754.231
346.769	430.846
350.829	399.264
354.887	387.293
358.942	321.081
362.996	512.019
367.048	889.175
371.098	1841.53
375.146	4223.02
379.192	6690.61
383.236	5248.25
387.279	2849.27
391.319	1409.58
395.358	786.276
399.394	559.994
403.429	515.59
407.462	370.994
411.493	229.879
415.522	113.479
419.549	58.18
423.575	64.847
427.598	76.477
431.619	63.07
435.639	85.625
439.657	180.011
443.673	283.495
447.687	576.954
451.699	1166.35
455.709	3031.97
459.717	6560.15
463.724	6553.06
467.728	3096.62
471.731	1169.77
475.732	417.923
479.731	221.366
483.728	127.851
487.723	63.334
491.716	97.812
495.708	250.285
499.697	670.752
503.685	2211.27
507.671	3331.38
511.655	2226.97
515.637	1801.08
519.617	833.627
523.596	402.478
527.572	439.846
531.547	1142.3
535.52	3043.43
539.491	2894.45
543.46	1179.1
547.427	458.699
551.393	238.246
555.356	209.74
559.318	270.18
563.278	449.566
567.236	957.955
571.192	1290.37
575.147	1036.78
579.099	629.119
583.05	414.401
586.999	463.621
590.946	688.778
594.891	1202.87
598.834	1740.9
602.776	1744.89
606.715	1690.81
610.653	3086.67
614.589	7660.51
618.523	11986.5
622.456	7360.51
626.386	3089.7
630.315	1458.98
634.242	806.268
638.167	629.482
642.09	477.623
646.012	406.688
649.931	335.677
653.849	234.589
657.765	125.424
661.679	49.18
665.592	24.169
669.502	43.637
673.411	39.74
677.318	41.152
681.223	25.173
685.126	72.965
689.028	31.279
692.927	12.751
696.825	96.355
700.721	241.822
704.616	375.013
708.508	385.987
712.399	209.431
716.288	314.783
720.175	416.045
724.06	635.222
727.944	1164.31
731.825	2026.3
735.705	3405.21
739.584	4288.03
743.46	3608.77
747.334	2290.43
751.207	1402
755.078	968.499
758.947	689.919
762.815	533.266
766.68	531.541
770.544	511.746
774.406	391.882
778.267	267.661
782.125	245.948
785.982	347.877
789.837	350.738
793.69	356.533
797.542	354.265
801.391	323.937
805.239	173.551
809.085	84.288
812.93	60.621
816.772	58.872
820.613	11.079
824.452	17.04
828.29	16.271
832.125	28.509
835.959	79.025
839.791	63.327
843.621	13.272
847.45	7.273
851.277	4.519
855.102	16.042
858.925	124.632
862.746	117.257
866.566	123.283
870.384	46.625
874.2	18.375
878.015	11.174
881.828	44.35
885.639	90.927
889.448	128.891
893.256	172.917
897.061	221.009
900.865	226.17
904.668	213.408
908.468	180.733
912.267	209.174
916.064	195.729
919.86	144.44
923.653	155.258
927.445	257.181
931.236	444.206
935.024	641.336
938.811	669.602
942.596	659.299
946.379	714.463
950.161	839.061
953.94	1032.82
957.719	1237.77
961.495	1800.88
965.27	2394.14
969.043	3273.59
972.814	4759.05
976.583	7831.5
980.351	14594
984.117	22026
987.882	18896.3
991.644	12107.3
995.405	11065.6
999.165	17456.6
1002.92	39847.1
1006.68	58949
1010.43	32436.1
1014.18	15253.4
1017.93	8518.81
1021.68	5585.4
1025.43	4035.15
1029.18	3006.05
1032.92	2478.11
1036.66	2141.33
1040.4	2015.71
1044.14	1810.26
1047.88	1295
1051.62	815.998
1055.35	657.515
1059.08	499.306
1062.81	445.433
1066.54	661.362
1070.27	1388.18
1073.99	2217.14
1077.72	1386.5
1081.44	674.047
1085.16	381.092
1088.88	230.629
1092.59	127.602
1096.31	137.409
1100.02	50.223
1103.73	68.702
1107.44	23.345
1111.15	118.824
1114.86	267.338
1118.57	552.857
1122.27	1686.48
1125.97	3755.24
1129.67	2034.12
1133.37	1144.15
1137.07	1565.37
1140.76	2747.76
1144.45	1958.8
1148.15	834.675
1151.84	381.568
1155.53	174.307
1159.21	53.181
1162.9	52.143
1166.58	97.187
1170.26	31.328
1173.94	83.565
1177.62	154.889
1181.3	241.245
1184.97	264.569
1188.65	145.69
1192.32	85.085
1195.99	46.428
1199.66	10.232
1203.33	10.493
1206.99	72.346
1210.65	23.601
1214.32	16.826
1217.98	38.294
1221.64	25.574
1225.29	48.301
1228.95	14.655
1232.6	37.811
1236.26	0.896
1239.91	38.073
1243.56	11.129
1247.2	27.146
1250.85	24.168
1254.49	4.752
1258.13	22.405
1261.78	38.357
1265.41	18.142
1269.05	44.896
1272.69	55.213
1276.32	66.314
1279.95	47.52
1283.59	39.785
1287.21	8.907
1290.84	1.73
1294.47	31.644
1298.09	69.423
1301.72	43.878
1305.34	70.365
1308.96	140.887
1312.58	160.431
1316.19	109.985
1319.81	134.448
1323.42	168.589
1327.03	133.415
1330.64	54.527
1334.25	76.375
1337.86	56.717
1341.46	76.532
1345.07	82.042
1348.67	15.304
1352.27	17.859
1355.87	37.054
1359.46	15.922
1363.06	15.746
1366.65	32.832
1370.25	68.287
1373.84	99.162
1377.43	121.411
1381.02	77.735
1384.6	181.853
1388.18	142.405
1391.77	157.877
1395.35	127.274
1398.93	84.897
1402.51	119.128
1406.08	75.216
1409.66	107.631
1413.23	121.839
1416.8	60.524
1420.37	81.291
1423.94	40.116
1427.51	95.407
1431.08	23.961
1434.64	1.487
1438.2	13.874
