Measurement: Raman, 514 nm, ccw, Raman Data Processed
Mineral: Vayrynenite
Rruff sample: R050243
Ideal chemistry: Mn^2+^Be(PO_4_)OH
Locality: Viitaniemi pegmatite, Erajarvi, Orivesi, Finland
Source: Marcus Origlieri
Description: Pink massive with defined cleavage planes
Measured chemistry: (Mn^2+^_0.95_Fe^2+^_0.05_)_Σ=1_Be_1.00_(P_1.00_O_4_)((OH)_0.94_F_0.06_)_Σ=1_ ; Be not measured but estimated by difference and charge balance.
Pin_id: M00264
Orientation: Laser parallel to (1 0 1). Fiducial mark perpendicular to laser is parallel to b [0 1 0]
Raman shift (cm-1)	intensity
56.365	0
60.563	21.708
64.758	3.671
68.952	10.764
73.144	69.01
77.333	206.817
81.521	323.202
85.706	933.751
89.89	2066.7
94.071	3287.63
98.251	1894.89
102.428	758.005
106.604	839.54
110.777	1085.28
114.949	1016.13
119.119	1666.73
123.286	2280.34
127.452	2099.47
131.615	977.109
135.777	492.237
139.937	397.838
144.094	333.498
148.25	324.168
152.403	300.022
156.555	291.14
160.705	412.621
164.853	577.742
168.998	563.471
173.142	631.515
177.284	1445.9
181.424	2895.3
185.562	4173.52
189.698	2366.9
193.831	905.614
197.963	525.665
202.093	422.042
206.221	443.727
210.347	622.723
214.472	581.042
218.594	806.69
222.714	746.716
226.832	733.442
230.948	946.563
235.063	1196.57
239.175	529.712
243.286	174.488
247.394	90.811
251.501	57.619
255.605	234.861
259.708	528.96
263.808	978.57
267.907	1008.48
272.004	510.654
276.099	180.698
280.192	65.889
284.283	32.336
288.372	14.01
292.459	19.898
296.544	63.016
300.627	65.801
304.709	50.484
308.788	11.056
312.865	6.544
316.941	144.339
321.015	438.331
325.086	1105.52
329.156	1926.89
333.224	2223.44
337.29	1666.17
341.354	1040.04
345.416	539.887
349.476	438.817
353.534	474.051
357.591	388.606
361.645	356.472
365.698	531.683
369.748	1061.17
373.797	2387.89
377.844	4395.82
381.889	5005.9
385.932	3201.14
389.973	1602.6
394.012	864.271
398.049	540.158
402.084	599.237
406.118	578.5
410.15	347.939
414.179	119.546
418.207	47.315
422.233	31.766
426.257	66.753
430.279	47.703
434.299	47.647
438.318	20.421
442.334	133.612
446.349	259.93
450.361	599.372
454.372	1540.93
458.381	3656.2
462.388	5654.53
466.394	4505.3
470.397	1949.97
474.398	689.513
478.398	249.745
482.396	80.218
486.391	66.512
490.385	90.04
494.377	230.66
498.368	562.443
502.356	1880.77
506.342	3702.31
510.327	3191.97
514.31	1603.73
518.291	872.178
522.27	358.55
526.247	220.688
530.222	447.872
534.196	1295.26
538.167	2200.88
542.137	1383.55
546.105	563.297
550.071	214.062
554.035	129.844
557.998	161.677
561.958	268.539
565.917	497.417
569.874	947.294
573.829	956.165
577.782	635.014
581.733	419.875
585.683	451.318
589.63	761.41
593.576	1792.57
597.52	3262.46
601.462	3494.12
605.402	2424.73
609.341	1917.3
613.277	2833.82
617.212	5155.33
621.145	5015.86
625.076	2498.44
629.006	1123.03
632.933	653.566
636.859	725.038
640.783	755.438
644.705	533.765
648.625	263.016
652.543	153.187
656.46	73.275
660.375	13.265
664.288	24.863
668.199	14.963
672.108	39.76
676.016	41.46
679.921	24.091
683.825	32.851
687.727	23.954
691.628	32.412
695.526	173.091
699.423	194.86
703.318	430.33
707.211	431.265
711.102	371.325
714.992	339.74
718.879	372.608
722.765	586.598
726.649	902.181
730.532	1427.37
734.412	2349.34
738.291	3215.18
742.168	3254.93
746.043	2389.6
749.916	1515.21
753.788	1017.74
757.658	686.138
761.526	520.407
765.392	429.547
769.257	386.56
773.119	382.447
776.98	334.209
780.839	300.845
784.697	401.355
788.552	409.74
792.406	511.002
796.258	626.142
800.108	726.162
803.957	602.063
807.804	340.85
811.649	203.448
815.492	137.357
819.333	79.848
823.173	57.762
827.011	18.967
830.847	5.588
834.681	26.343
838.514	40.25
842.345	45.431
846.174	13.766
850.001	43.563
853.827	25.542
857.651	41.973
861.473	7.168
865.293	27.085
869.112	11.466
872.928	24.062
876.744	0.535
880.557	4.959
884.369	76.356
888.178	119.744
891.987	228.127
895.793	235.511
899.598	233.897
903.401	196.289
907.202	201.69
911.001	158.105
914.799	174.535
918.595	157.987
922.389	141.466
926.182	190.972
929.972	239.508
933.761	417.077
937.549	412.683
941.334	497.329
945.118	488.019
948.9	560.76
952.681	650.554
956.459	763.428
960.236	1065.42
964.012	1496.48
967.785	1955.64
971.557	2633.89
975.327	3993.08
979.095	6869.35
982.862	11362.7
986.627	12594.7
990.39	9656.17
994.152	8679.69
997.912	12320.8
1001.67	26640.8
1005.43	50812.7
1009.18	40117.1
1012.93	19238.7
1016.68	9915.99
1020.43	6064.03
1024.18	4163.05
1027.93	3087.87
1031.67	2497.68
1035.42	2187.1
1039.16	2074.74
1042.9	1931.52
1046.63	1590.43
1050.37	1090.48
1054.11	806.666
1057.84	646.114
1061.57	715.559
1065.3	951.137
1069.03	1611.17
1072.75	2988.01
1076.47	2995.94
1080.2	1497.98
1083.92	767.158
1087.64	439.43
1091.36	310.79
1095.07	267.312
1098.79	246.27
1102.5	285.256
1106.21	301.583
1109.92	251.693
1113.62	489.75
1117.33	830.065
1121.04	2115.25
1124.74	5910.14
1128.44	5511.6
1132.14	2192.13
1135.83	1268.76
1139.53	1417.58
1143.22	1356.35
1146.92	766.251
1150.61	375.936
1154.3	183.617
1157.98	114.705
1161.67	48.154
1165.35	39.158
1169.04	113.89
1172.72	139.148
1176.4	79.936
1180.07	111.732
1183.75	143.793
1187.42	161.506
1191.1	77.677
1194.77	41.076
1198.44	27.911
1202.1	9.458
1205.77	121.636
1209.43	43.321
1213.1	30.962
1216.76	0.128
1220.42	44.253
1224.07	27.373
1227.73	51.094
1231.38	14.99
1235.04	45.131
1238.69	37.013
1242.34	7.8
1245.99	29.22
1249.63	44.402
1253.28	17.519
1256.92	12.842
1260.56	25.53
1264.2	17.871
1267.84	13.91
1271.48	37.936
1275.11	2.654
1278.74	0.87
1282.38	11.004
1286.01	49.231
1289.63	10.534
1293.26	19.267
1296.89	3.891
1300.51	43.288
1304.13	25.83
1307.75	16.351
1311.37	1.672
1314.99	21.916
1318.6	29.581
1322.22	18.159
1325.83	47.857
1329.44	73.655
1333.05	82.229
1336.66	41.584
1340.26	30.743
1343.87	32.638
1347.47	22.317
1351.07	112.694
1354.67	63.968
1358.27	55.04
1361.86	131.591
1365.46	41.385
1369.05	84.384
1372.64	103.869
1376.23	79.074
1379.82	45.773
1383.41	129.271
1386.99	124.712
1390.57	54.895
1394.16	166.132
1397.74	117.56
1401.32	152.844
1404.89	157.609
1408.47	143.467
1412.04	61.12
1415.61	171.196
1419.18	120.495
1422.75	144.64
1426.32	86.525
1429.89	61.56
1433.45	78.568
1437.01	92.687
1440.58	64.415
1444.13	105.375
1447.69	129.822
1451.25	138.639
1454.81	80.035
1458.36	196.653
1461.91	169.297
1465.46	172.868
1469.01	109.507
1472.56	146.312
1476.1	122.114
1479.64	44.889
1483.19	139.332
1486.73	117.975
1490.27	48.568
1493.81	48.214
1497.34	78.077
1500.88	55.226
1504.41	106.834
1507.94	53.76
1511.47	98.352
1515	91.966
1518.53	0.433
1522.05	48.797
1525.57	23.172
1529.1	0
