Measurement: Raman, 514 nm, ccw, Raman Data Processed
Mineral: Vayrynenite
Rruff sample: R050243
Ideal chemistry: Mn^2+^Be(PO_4_)OH
Locality: Viitaniemi pegmatite, Erajarvi, Orivesi, Finland
Source: Marcus Origlieri
Description: Pink massive with defined cleavage planes
Measured chemistry: (Mn^2+^_0.95_Fe^2+^_0.05_)_Σ=1_Be_1.00_(P_1.00_O_4_)((OH)_0.94_F_0.06_)_Σ=1_ ; Be not measured but estimated by difference and charge balance.
Pin_id: M00427
Orientation: Laser parallel to b* (0 1 0). Fiducial mark perpendicular to laser is parallel to c [0 0 1]
Raman shift (cm-1)	intensity
56.365	0
60.563	21.409
64.758	1.902
68.952	48.446
73.144	243.027
77.333	476.884
81.521	731.601
85.706	1108.87
89.89	1819.29
94.071	3738.09
98.251	2230.41
102.428	1130.51
106.604	1099.77
110.777	1122.85
114.949	1140.54
119.119	1558.11
123.286	2506.26
127.452	2654.43
131.615	1138.5
135.777	717.421
139.937	626.114
144.094	540.874
148.25	534.697
152.403	499.807
156.555	481.311
160.705	606.27
164.853	1063.92
168.998	877.186
173.142	772.925
177.284	1335.62
181.424	2839.16
185.562	5849.45
189.698	1903.59
193.831	696.89
197.963	553.086
202.093	400.781
206.221	480.807
210.347	615.159
214.472	717.844
218.594	790.86
222.714	770.192
226.832	496.938
230.948	529.839
235.063	746.687
239.175	229.673
243.286	182.556
247.394	111.195
251.501	71.485
255.605	122.349
259.708	252.789
263.808	397.616
267.907	466.075
272.004	208.715
276.099	86.989
280.192	215.318
284.283	432.911
288.372	478.77
292.459	159.875
296.544	20.786
300.627	92.252
304.709	33.614
308.788	18.849
312.865	29.927
316.941	19.832
321.015	68.631
325.086	247.551
329.156	561.289
333.224	1247.78
337.29	1899.17
341.354	1452.31
345.416	992.441
349.476	1221.6
353.534	1499.3
357.591	1102.64
361.645	656.597
365.698	746.81
369.748	1110.26
373.797	2283.91
377.844	4503.74
381.889	5328.68
385.932	3095.72
389.973	1543.96
394.012	826.814
398.049	726.019
402.084	1057.78
406.118	1235.68
410.15	579.701
414.179	316.834
418.207	133.068
422.233	53.393
426.257	9.2
430.279	36.8
434.299	41.554
438.318	24.935
442.334	88.354
446.349	154.822
450.361	380.334
454.372	963.884
458.381	2212.09
462.388	4008.51
466.394	2859.77
470.397	995.914
474.398	279.193
478.398	51.473
482.396	0.823
486.391	28.239
490.385	31.842
494.377	10.678
498.368	138.421
502.356	457.002
506.342	1017.82
510.327	805.486
514.31	446.044
518.291	434.377
522.27	346.867
526.247	532.98
530.222	1218.99
534.196	3395.33
538.167	6634.5
542.137	3147.84
546.105	1005.66
550.071	401.384
554.035	316.013
557.998	220.547
561.958	234.995
565.917	406.348
569.874	680.605
573.829	792.768
577.782	609.809
581.733	471.654
585.683	681.298
589.63	1257.28
593.576	3004.36
597.52	6067.4
601.462	4675.65
605.402	2607.76
609.341	2456.74
613.277	4511.56
617.212	9526.24
621.145	8247.83
625.076	3051.37
629.006	1401.82
632.933	651.161
636.859	499.356
640.783	419.421
644.705	264.322
648.625	225.708
652.543	166.71
656.46	102.932
660.375	71.263
664.288	12.944
668.199	4.878
672.108	49.57
676.016	38.827
679.921	42.147
683.825	2.481
687.727	55.961
691.628	72.844
695.526	117.04
699.423	209.421
703.318	454.928
707.211	520.236
711.102	431.301
714.992	308.887
718.879	400.994
722.765	670.543
726.649	1035.8
730.532	1738.19
734.412	2756.2
738.291	3823.04
742.168	3763.71
746.043	2636.27
749.916	1617.7
753.788	1079.98
757.658	832.747
761.526	668.704
765.392	571.499
769.257	529.134
773.119	462.613
776.98	415.936
780.839	303.104
784.697	362.119
788.552	307.982
792.406	397.698
796.258	333.273
800.108	475.806
803.957	337.284
807.804	240.741
811.649	131.906
815.492	114.114
819.333	16.76
823.173	72.9
827.011	79.177
830.847	199.954
834.681	38.397
838.514	12.071
842.345	50.015
846.174	14.449
850.001	12.619
853.827	24.588
857.651	25.977
861.473	103.371
865.293	183.761
869.112	8.928
872.928	60.302
876.744	29.529
880.557	5.462
884.369	113.545
888.178	82.522
891.987	133.473
895.793	182.402
899.598	173.31
903.401	121.201
907.202	35.086
911.001	67.965
914.799	37.849
918.595	192.745
922.389	134.644
926.182	81.543
929.972	186.449
933.761	207.385
937.549	250.336
941.334	323.351
945.118	390.431
948.9	369.372
952.681	484.663
956.459	779.816
960.236	1091.41
964.012	1190.58
967.785	1667.4
971.557	1961.73
975.327	2677.44
979.095	4236.21
982.862	6503.32
986.627	7651.33
990.39	6301.7
994.152	6948.06
997.912	11339.3
1001.67	26749.8
1005.43	53800.6
1009.18	39465.1
1012.93	17968.8
1016.68	9433.99
1020.43	5768.18
1024.18	4268.51
1027.93	3204.81
1031.67	2646.17
1035.42	2516.69
1039.16	2586.31
1042.9	2989.07
1046.63	2475.91
1050.37	1744.8
1054.11	1188.84
1057.84	994.819
1061.57	1107.53
1065.3	1354.64
1069.03	2698.34
1072.75	5418.78
1076.47	5610.09
1080.2	2467.98
1083.92	1088.01
1087.64	625.766
1091.36	399.783
1095.07	305.609
1098.79	235.668
1102.5	267.743
1106.21	274.445
1109.92	207.944
1113.62	271.8
1117.33	338.36
1121.04	737.288
1124.74	1937.43
1128.44	1661.03
1132.14	510.582
1135.83	304.958
1139.53	407.729
1143.22	201.818
1146.92	42.932
1150.61	37.356
1154.3	33.543
1157.98	4.524
1161.67	60.918
1165.35	61.934
1169.04	82.849
1172.72	119.843
1176.4	161.583
1180.07	321.042
1183.75	312.126
1187.42	353.653
1191.1	223.747
1194.77	188.945
1198.44	75.502
1202.1	6.957
1205.77	92.71
1209.43	74.214
1213.1	10.181
1216.76	26.671
1220.42	97.916
1224.07	67.516
1227.73	23.671
1231.38	24.707
1235.04	50.596
1238.69	32.889
1242.34	7.877
1245.99	28.916
1249.63	35.79
1253.28	10.83
1256.92	82.704
1260.56	95.167
1264.2	10.735
1267.84	92.78
1271.48	45.429
1275.11	5.432
1278.74	112.441
1282.38	90.073
1286.01	35.393
1289.63	14.275
1293.26	48.54
1296.89	47.123
1300.51	5.815
1304.13	63.248
1307.75	67.329
1311.37	119.521
1314.99	35.533
1318.6	55.701
1322.22	79.765
1325.83	5.066
1329.44	110.047
1333.05	86.237
1336.66	47.92
1340.26	51.256
1343.87	26.263
1347.47	57.39
1351.07	72.495
1354.67	78.521
1358.27	137.408
1361.86	71.385
1365.46	67.558
1369.05	121.185
1372.64	65.009
1376.23	117.688
1379.82	127.12
1383.41	173.054
1386.99	98.083
1390.57	74.367
1394.16	213.811
1397.74	133.09
1401.32	307.604
1404.89	211.141
1408.47	147.751
1412.04	184.521
1415.61	217.676
1419.18	163
1422.75	181.3
1426.32	138.049
1429.89	172.418
1433.45	200.523
1437.01	209.729
1440.58	352.613
1444.13	318.133
1447.69	402.168
1451.25	430.122
1454.81	528.312
1458.36	586.089
1461.91	490.209
1465.46	355.495
1469.01	281.472
1472.56	327.1
1476.1	321.12
1479.64	203.288
1483.19	182.938
1486.73	142.935
1490.27	144.18
1493.81	245.171
1497.34	221.553
1500.88	113.407
1504.41	32.196
1507.94	91.001
1511.47	116.271
1515	135.735
1518.53	10.517
1522.05	101.693
