Measurement: Raman, 514 nm, ccw, Raman Data Processed
Mineral: Vesuvianite
Rruff sample: R050035
Ideal chemistry: (Ca,Na)_19_(Al,Mg,Fe)_13_(SiO_4_)_10_(Si_2_O_7_)_4_(OH,F,O)_10_
Locality: Olmsteadville, New York, USA
Source: University of Arizona Mineral Museum
Description: Brown single crystal fragment
Measured chemistry: (Ca_18.66_Na_0.34_)_Σ=19_(Al_9.16_Mg_1.28_Ti_1.21_Fe^3+^_0.89_Fe^2+^_0.46_)_Σ=13_Si_18_O_68_((OH)_4.70_F_3.18_O_2.12_)_Σ=10_
Pin_id: L00076
Orientation: Laser parallel to c* (0 0 1). Fiducial mark perpendicular to laser is parallel to a [1 0 0]
Raman shift (cm-1)	intensity
152.858	0
157.024	41.615
161.187	151.216
165.348	285.182
169.507	537.883
173.664	621.819
177.819	808.173
181.971	980.323
186.122	958.087
190.271	580.28
194.417	276.605
198.562	126.708
202.704	39.72
206.844	124.973
210.983	302.117
215.119	850.887
219.253	1481.06
223.385	1782.43
227.515	1195.48
231.643	652.809
235.769	701.31
239.893	811.219
244.014	601.079
248.134	680.588
252.252	970.103
256.367	1189.98
260.481	790.366
264.592	431.255
268.702	222.599
272.809	134.351
276.915	266.46
281.018	318.87
285.119	581.529
289.218	984.388
293.316	967.4
297.411	740.521
301.504	612.565
305.595	520.121
309.684	633.987
313.771	1149.85
317.856	2074.47
321.939	2837.83
326.02	3367.5
330.099	3544.35
334.176	3330.23
338.251	2601.24
342.323	1841.95
346.394	1654.83
350.463	1239.98
354.53	1317.22
358.594	1405.84
362.657	1895.02
366.718	2474.36
370.777	3104.78
374.833	3293.43
378.888	2743.07
382.941	2082.76
386.992	1763.4
391.04	1832.14
395.087	2191.75
399.132	3101.26
403.174	4320.62
407.215	5079.83
411.254	5328.89
415.29	4907.78
419.325	3816.51
423.358	2475.06
427.389	1493.41
431.417	801.556
435.444	559.485
439.469	107.187
443.492	145.377
447.512	218.407
451.531	22.005
455.548	63.863
459.563	59.293
463.576	174.121
467.587	138.084
471.596	18.451
475.603	54.577
479.608	103.02
483.611	118.648
487.612	139.72
491.611	460.487
495.608	717.604
499.603	1077.48
503.596	1585.72
507.587	2057.5
511.577	2276.06
515.564	2424.63
519.549	2333.73
523.533	1901.35
527.514	1708.39
531.493	1684.83
535.471	1550.69
539.447	1745.97
543.42	1870.67
547.392	1814.8
551.362	1888.36
555.329	1631.35
559.295	1533.78
563.259	1265.66
567.221	1117.01
571.181	947.815
575.139	1058.1
579.095	1367.87
583.049	1687.14
587.002	2045.91
590.952	2484.2
594.9	2852.03
598.847	3409.39
602.792	3803.91
606.734	4157.51
610.675	4191.79
614.614	4246.25
618.55	3719.31
622.485	3134.03
626.418	2728.72
630.349	1798.44
634.279	1632.17
638.206	1331.8
642.131	985.224
646.055	553.445
649.976	246.907
653.896	179.865
657.814	417.864
661.729	818.432
665.643	782.625
669.555	590.469
673.465	341.438
677.373	65.944
681.28	543.149
685.184	1761.96
689.087	3727.87
692.987	5955.44
696.886	5803.19
700.783	3831.15
704.677	1949.34
708.57	1197.79
712.462	1136.53
716.351	1855.58
720.238	2654.97
724.124	4304.72
728.007	6544.86
731.889	10015.4
735.769	12986.4
739.647	16537.9
743.523	20129.8
747.397	22672.3
751.269	23945.2
755.139	23240.8
759.008	20653.1
762.875	16508.2
766.739	13274.2
770.602	11011.2
774.463	10229.1
778.323	9548.06
782.18	9248.24
786.035	8389.82
789.889	7422.92
793.741	6627.63
797.591	5854.13
801.439	5272.33
805.285	4651.97
809.129	4010.47
812.971	3668.94
816.812	3839.74
820.651	3465.24
824.488	3004.52
828.323	2538.1
832.156	2297.15
835.987	2316.51
839.817	2317.28
843.644	2519.45
847.47	2972.97
851.294	3457.79
855.116	4233.87
858.936	4861.22
862.755	5529.87
866.571	5579.8
870.386	5690.25
874.199	5473.44
878.01	4975.76
881.82	4832.06
885.627	4898.19
889.433	4535.53
893.236	4094.07
897.038	3973.8
900.838	4144.71
904.637	4406.8
908.433	4830.03
912.228	5644.41
916.021	6499.9
919.812	7816.49
923.601	8803.07
927.388	9566.05
931.174	9449.17
934.958	9295.66
938.739	9269.41
942.52	9386.17
946.298	9821.38
950.074	10364.4
953.849	10309.7
957.622	10268.7
961.393	9559.55
965.162	8925.04
968.93	7985.79
972.696	6641.02
976.459	5736.26
980.222	5166.86
983.982	4435.07
987.74	3918.22
991.497	3447.05
995.252	3044.37
999.005	2710.4
1002.76	2423.11
1006.51	2507.69
1010.25	2593.31
1014	2738.08
1017.74	2829.25
1021.49	3048.79
1025.23	2993.46
1028.96	3017.14
1032.7	3090.04
1036.44	3662.93
1040.17	4785.42
1043.9	6088.3
1047.63	5810.67
1051.36	4053.05
1055.09	2564.99
1058.81	1386.57
1062.54	657.57
1066.26	117.459
1069.97	12.952
1073.69	16.041
1077.41	135.749
1081.12	258.045
1084.84	241.908
1088.55	257.896
1092.25	185.872
1095.96	195.471
1099.67	156.947
1103.37	70.999
1107.07	126.908
1110.77	43.991
1114.47	2.712
1118.16	88.767
1121.86	438.485
1125.55	347.249
1129.24	234.674
1132.93	233.078
1136.62	58.808
1140.31	45.403
1143.99	310.266
1147.67	266.179
1151.35	411.256
1155.03	372.821
1158.71	403.038
1162.39	227.056
1166.06	364.264
1169.73	340.744
1173.4	396.163
1177.07	510.655
1180.74	502.92
1184.4	598.354
1188.07	578.411
1191.73	682.231
1195.39	546.825
1199.05	508.957
1202.7	553.565
1206.36	756.329
1210.01	808.854
1213.66	848.376
1217.31	768.568
1220.96	768.262
1224.6	676.659
1228.25	541.483
1231.89	630.93
1235.53	869.878
1239.17	761.188
1242.81	628.961
1246.44	521.679
1250.08	574.853
1253.71	404.767
1257.34	332.107
1260.97	162.575
1264.6	250.71
1268.22	463.686
1271.85	530.104
1275.47	227.269
1279.09	447.443
1282.71	206.905
1286.33	151.329
1289.94	42.619
1293.56	32.344
1297.17	135.867
1300.78	235.883
1304.39	184.486
1307.99	410.761
1311.6	238.548
1315.2	316.802
1318.8	44.109
1322.4	121.889
1326	31.114
1329.6	185.542
1333.19	101.279
1336.79	236.354
1340.38	260.204
1343.97	273.574
1347.56	207.107
1351.14	170.795
1354.73	223.558
1358.31	86.592
1361.89	69.043
1365.47	102.959
1369.05	115.205
1372.63	216.3
1376.2	110.482
1379.78	286.188
1383.35	283.312
1386.92	101.925
1390.49	99.289
1394.05	166.51
1397.62	61.506
1401.18	55.342
1404.74	172.201
1408.3	218.517
1411.86	180.781
1415.42	279.984
1418.97	117.107
1422.53	279.598
1426.08	20.512
1429.63	151.959
1433.18	1.156
1436.72	130.875
1440.27	57.352
1443.81	240.84
1447.36	368.564
1450.89	457.637
1454.43	336.158
1457.97	354.4
1461.51	371.557
1465.04	197.621
1468.57	185.18
1472.1	225.076
1475.63	103.342
1479.16	152.574
1482.68	142.428
1486.21	362.326
1489.73	392.518
1493.25	315.266
1496.77	351.137
1500.29	325.596
1503.8	282.697
1507.32	292.863
1510.83	148.002
1514.34	0
