Measurement: Raman, 514 nm, ccw, Raman Data Processed
Mineral: Vesuvianite
Rruff sample: R050233
Ideal chemistry: (Ca,Na)_19_(Al,Mg,Fe)_13_(SiO_4_)_10_(Si_2_O_7_)_4_(OH,F,O)_10_
Locality: Ludwig, Nevada, USA
Source: Marcus Origlieri
Description: Pale green euhedral single crystal
Measured chemistry: Ca_19.00_(Al_10.04_Mg_2.54_Fe^2+^_0.42_)_Σ=13_(Si_17.96_Al_0.04_)_Σ=18_O_68_((OH)_9.66_F_0.34_)_Σ=10_ ; Boron not analyzed.
Pin_id: L00161
Orientation: Laser parallel to -c* (0 0 -1). Fiducial mark perpendicular to laser is parallel to -a [-1 0 0]
Raman shift (cm-1)	intensity
121.203	0
125.369	1.906
129.534	264.201
133.696	57.758
137.857	360.881
142.016	225.707
146.172	316.762
150.327	115.629
154.48	41.936
158.63	208.184
162.779	424.33
166.926	880.324
171.07	1545.06
175.213	1911.83
179.354	1953.2
183.493	1787.88
187.63	1150.85
191.765	712.07
195.898	595.309
200.029	597.344
204.158	901.943
208.285	1485.47
212.41	1864.76
216.533	2560.94
220.654	2916.27
224.773	3260.86
228.891	2881.8
233.006	2156.13
237.119	1584.87
241.231	1463.02
245.34	1882.03
249.448	2271.29
253.553	2931.68
257.657	2757.57
261.758	1487.57
265.858	823.686
269.956	933.9
274.052	783.232
278.146	911.684
282.237	1545.27
286.327	2166.7
290.416	2334.97
294.502	1632.88
298.586	1383.79
302.668	1141.23
306.749	1170.74
310.827	1486.07
314.903	1823.07
318.978	2428.6
323.051	3076.54
327.121	2971.8
331.19	3211.31
335.257	2484.98
339.322	1854.78
343.385	1309.64
347.446	1206.54
351.505	1340.41
355.563	1616.24
359.618	1796.37
363.672	2138.28
367.723	2172.08
371.773	1841.68
375.821	1861.35
379.866	1801.77
383.91	1655.14
387.952	1992.09
391.992	2729.08
396.031	4251.76
400.067	5211.13
404.101	6390.16
408.134	6715.83
412.165	5968.27
416.193	4760.65
420.22	3650.9
424.245	2596.06
428.268	1448
432.289	1112.84
436.309	409.689
440.326	158.396
444.342	255.01
448.355	67.658
452.367	383.525
456.377	105.59
460.385	292.014
464.391	282.52
468.395	528.646
472.398	1197.36
476.398	1069.59
480.397	1169.29
484.394	1031.44
488.389	999.014
492.382	782.99
496.373	519.348
500.362	733.064
504.349	853.117
508.335	589.486
512.319	605.15
516.3	582.094
520.28	162.283
524.259	198.365
528.235	330.311
532.209	339.895
536.182	32.088
540.152	38.352
544.121	260.338
548.088	227.986
552.053	293.746
556.017	360.611
559.978	155.562
563.938	351.873
567.895	771.475
571.851	693.16
575.805	1337.78
579.758	2186.96
583.708	2623.13
587.657	3440.69
591.603	3276.32
595.548	3356.83
599.491	3352.98
603.432	3408.09
607.372	3052.32
611.309	3204.77
615.245	2913.8
619.179	2758.04
623.111	2430.96
627.041	2951.66
630.97	3425.01
634.896	2870.9
638.821	3185.4
642.744	3078.94
646.665	2240.15
650.584	1306.38
654.502	1158.17
658.418	626.289
662.331	676.406
666.244	1017.82
670.154	1055.77
674.062	1330.22
677.969	2092.79
681.874	3363.57
685.777	4756.54
689.678	6973.98
693.577	8413.4
697.475	7434.05
701.371	5370.41
705.265	3679.42
709.157	2338.66
713.047	915.449
716.936	295.777
720.823	336.635
724.708	19.033
728.591	244.27
732.472	125.469
736.352	105.441
740.23	51.648
744.106	204.006
747.98	46.391
751.853	192.633
755.723	252.043
759.592	33.045
763.459	0.578
767.325	136.381
771.188	43.398
775.05	194.711
778.91	16.023
782.768	186.742
786.625	452.963
790.479	550.811
794.332	676.281
798.183	726.434
802.033	686.203
805.88	1459.57
809.726	1437.55
813.57	1665.14
817.413	1685.35
821.253	1944.21
825.092	2253.72
828.929	3016.02
832.764	3195.13
836.598	4026.34
840.429	5459.96
844.259	6526.22
848.088	7855.6
851.914	10256.8
855.739	12647
859.562	12932.2
863.383	12978.4
867.203	11667.4
871.02	10666.1
874.836	10479.5
878.65	10463
882.463	10437.7
886.274	10151.9
890.083	10331.3
893.89	9996.43
897.695	9351.48
901.499	9403.26
905.301	9295.61
909.102	9465.04
912.9	10001.7
916.697	11016.6
920.492	13105.9
924.285	15332.4
928.077	17276
931.867	17901.6
935.655	17066.4
939.442	15794.1
943.226	14493.1
947.009	12787.7
950.791	11444.5
954.57	10834.6
958.348	9771.23
962.124	8896.85
965.899	8087.48
969.671	7012.41
973.442	5963.04
977.211	5420.27
980.979	4694.11
984.745	4368.88
988.509	3918.55
992.271	3134.18
996.032	2999.68
999.791	2875.52
1003.55	2419.26
1007.3	2236.98
1011.06	2540.07
1014.81	2194.59
1018.56	2401.11
1022.31	2829.52
1026.06	3192.66
1029.8	3200.83
1033.55	3334.19
1037.29	2980.89
1041.03	2704.35
1044.77	2194.91
1048.5	2270
1052.24	1425.91
1055.97	775.281
1059.7	714.652
1063.43	510.527
1067.16	654.047
1070.89	564.09
1074.61	545.789
1078.34	637.043
1082.06	135.262
1085.78	66.805
1089.5	188.445
1093.21	17.281
1096.93	136.387
1100.64	219.355
1104.35	530.941
1108.06	456.559
1111.77	697.266
1115.48	274.398
1119.18	1.457
1122.89	437.832
1126.59	146.648
1130.29	198.367
1133.99	153.879
1137.68	389.852
1141.38	129.91
1145.07	90.738
1148.76	319.582
1152.45	191.348
1156.14	115.625
1159.83	353.055
1163.51	258.492
1167.19	101.348
1170.88	133.734
1174.56	151.594
1178.23	152.762
1181.91	208.676
1185.59	194.785
1189.26	402.156
1192.93	191.195
1196.6	593.977
1200.27	166.23
1203.94	581.258
1207.6	28.547
1211.27	594.977
1214.93	669.93
1218.59	531.832
1222.25	371.453
1225.9	662.688
1229.56	831.398
1233.21	766.809
1236.86	624.375
1240.51	654.492
1244.16	420.184
1247.81	110.117
1251.45	462.848
1255.1	571.801
1258.74	581.68
1262.38	600.379
1266.02	402.855
1269.66	409.789
1273.29	336.594
1276.93	65.5
1280.56	269.543
1284.19	416.645
1287.82	302.516
1291.45	169.586
1295.07	354.926
1298.7	452.434
1302.32	267.586
1305.94	434.25
1309.56	606.633
1313.18	206.57
1316.8	396.961
1320.41	346.289
1324.02	186.531
1327.63	7.191
1331.24	188.055
