Measurement: Raman, 514 nm, ccw, Raman Data Processed
Mineral: Vesuvianite
Rruff sample: R050233
Ideal chemistry: (Ca,Na)_19_(Al,Mg,Fe)_13_(SiO_4_)_10_(Si_2_O_7_)_4_(OH,F,O)_10_
Locality: Ludwig, Nevada, USA
Source: Marcus Origlieri
Description: Pale green euhedral single crystal
Measured chemistry: Ca_19.00_(Al_10.04_Mg_2.54_Fe^2+^_0.42_)_Σ=13_(Si_17.96_Al_0.04_)_Σ=18_O_68_((OH)_9.66_F_0.34_)_Σ=10_ ; Boron not analyzed.
Pin_id: L00161
Orientation: Laser parallel to -c* (0 0 -1). Fiducial mark perpendicular to laser is parallel to -a [-1 0 0]
Raman shift (cm-1)	intensity
115.644	0
119.813	251.547
123.981	168.195
128.146	44.127
132.309	232.027
136.47	396.225
140.63	603.154
144.787	384.242
148.942	199.836
153.096	395.076
157.247	889.51
161.396	1727.89
165.544	2410.81
169.689	2331.43
173.833	2812.23
177.974	2855.82
182.114	2411.12
186.251	1881.26
190.387	1154.08
194.52	655.268
198.652	893.445
202.782	1000.69
206.909	1618.29
211.035	2556.84
215.159	3382.65
219.281	3310.85
223.4	2458.51
227.518	1814.66
231.634	1336.31
235.748	905.455
239.86	903.354
243.97	1510.22
248.079	2759.58
252.185	4022.62
256.289	4531.62
260.391	3749.88
264.492	2961.27
268.59	2284.64
272.687	2886.84
276.781	3396.85
280.874	4128.23
284.964	4950.54
289.053	5420.27
293.14	5356.55
297.225	4683.75
301.308	4074.21
305.389	3604.65
309.468	2951.87
313.545	2882.7
317.62	2725.98
321.693	2888.61
325.765	2997.48
329.834	2711.5
333.902	3072.61
337.967	3158.74
342.031	3374.84
346.093	3927.84
350.153	4997.7
354.21	6018.38
358.267	7564.79
362.321	8914.72
366.373	9206.68
370.423	8215.97
374.471	7027.71
378.518	5313.4
382.563	4261.22
386.605	3792.45
390.646	3092.76
394.685	3331.44
398.722	3786.55
402.757	4281.44
406.79	4966.96
410.821	5146.63
414.851	4417.76
418.878	3565.39
422.904	2494.55
426.927	1742.05
430.949	889.975
434.969	779.441
438.987	317.479
443.003	511.98
447.018	651.297
451.03	799.426
455.041	853.365
459.049	699.871
463.056	868.949
467.061	1270.38
471.064	1409.02
475.065	1919.81
479.064	1906.73
483.062	1646.73
487.057	1504.79
491.051	809.883
495.043	481.977
499.032	462.053
503.02	427.586
507.007	256.049
510.991	282.924
514.973	66.686
518.954	262.689
522.933	156.658
526.91	56.449
530.885	258.146
534.858	66.107
538.829	18.926
542.799	247.852
546.766	138.613
550.732	107.818
554.696	231.617
558.658	123.572
562.618	2.98
566.576	112.479
570.533	578.867
574.488	806.91
578.44	1409.58
582.391	2232.15
586.341	2897.59
590.288	3657.16
594.233	4588.54
598.177	5146.59
602.119	5886.97
606.059	6386.81
609.997	6564.52
613.933	6890.78
617.868	6972.1
621.801	7883.23
625.731	8461.43
629.66	10413.5
633.588	12277.6
637.513	12789.4
641.437	13097.3
645.358	11186.5
649.278	8149.02
653.196	5532.76
657.113	3944.76
661.027	3113.02
664.94	2683.53
668.851	2661.3
672.76	2864.3
676.667	3129.09
680.572	4262.77
684.476	5820.02
688.378	7741.29
692.278	8487.09
696.176	7676.16
700.072	5512.48
703.967	3428.91
707.86	1584.76
711.751	1329.03
715.64	420.709
719.527	254.801
723.413	92.043
727.297	301.895
731.179	74.133
735.059	171.477
738.937	222.062
742.814	82.299
746.689	184.799
750.562	153.154
754.433	99.072
758.303	317.607
762.17	124.303
766.036	293.01
769.901	3.479
773.763	276.012
777.624	161.334
781.482	400.123
785.339	404.439
789.195	375.301
793.048	512.76
796.9	886.877
800.75	1002.64
804.598	778.023
808.445	1118.03
812.289	1362.68
816.132	1802.97
819.973	1995.92
823.813	2445.55
827.65	2571.91
831.486	3135.29
835.32	4072.91
839.152	5018.09
842.983	6087.74
846.812	7417.15
850.639	9301.77
854.464	10866.8
858.288	11593.2
862.11	11156.8
865.93	11076.2
869.748	10138
873.564	9933.56
877.379	10270.7
881.192	9973.05
885.004	9775.85
888.813	9739.72
892.621	9372.05
896.427	8801.61
900.232	8572.25
904.034	8435.39
907.835	8809.97
911.634	9052.97
915.432	9553.45
919.227	10152.4
923.021	11970.5
926.813	13054.7
930.604	14441.2
934.393	14682.6
938.18	13332
941.965	12474.4
945.749	11460.4
949.53	10405.3
953.311	9496.94
957.089	9442.32
960.866	8756.77
964.641	7947.34
968.414	7118.99
972.185	6629.14
975.955	6135.94
979.723	5537.4
983.49	4283.56
987.254	3835.7
991.017	3544.19
994.779	3166.06
998.538	2486.33
1002.3	2902.38
1006.05	2735.23
1009.81	2554.38
1013.56	2358.83
1017.31	2420.55
1021.06	2612.2
1024.81	2226.02
1028.55	2641.09
1032.3	2575.34
1036.04	2658.07
1039.78	3151.37
1043.52	3199.18
1047.26	2147.62
1050.99	1968.41
1054.73	1126.69
1058.46	1016.37
1062.19	726.613
1065.92	412.336
1069.65	376.387
1073.37	444.832
1077.1	202.965
1080.82	390.73
1084.54	236.609
1088.26	229.199
1091.97	37.684
1095.69	51.859
1099.4	260.809
1103.12	302.141
1106.83	919.57
1110.54	998.559
1114.24	812.863
1117.95	524.352
1121.65	422.465
1125.35	43.301
1129.06	319.883
1132.75	387.785
1136.45	387.555
1140.15	35.668
1143.84	82.992
1147.53	105.461
1151.22	128.816
1154.91	182.109
1158.6	95.305
1162.28	148.023
1165.97	172.305
1169.65	360.945
1173.33	59.145
1177.01	282.375
1180.69	6.824
1184.36	38.086
1188.04	113.176
1191.71	749.363
1195.38	339.445
1199.05	491.367
1202.71	821.543
1206.38	657.297
1210.04	564.23
1213.71	676.227
1217.37	672.547
1221.03	555.594
1224.68	856.562
1228.34	825.098
1231.99	538.438
1235.65	470.637
1239.3	830.184
1242.95	650.73
1246.59	655.203
1250.24	329.609
1253.88	437.785
1257.53	451.766
1261.17	413.746
1264.81	472.926
1268.45	524.84
1272.08	140.172
1275.72	358.402
1279.35	392.973
1282.98	154.883
1286.61	174.863
1290.24	408.223
1293.87	349.008
1297.49	248.926
1301.11	57.324
1304.73	178.391
1308.36	3.078
1311.97	388.781
1315.59	313.742
1319.2	677.09
1322.82	630.258
1326.43	667.895
