Measurement: Raman, 514 nm, ccw, Raman Data Processed
Mineral: Vesuvianite
Rruff sample: R050035
Ideal chemistry: (Ca,Na)_19_(Al,Mg,Fe)_13_(SiO_4_)_10_(Si_2_O_7_)_4_(OH,F,O)_10_
Locality: Olmsteadville, New York, USA
Source: University of Arizona Mineral Museum
Description: Brown single crystal fragment
Measured chemistry: (Ca_18.66_Na_0.34_)_Σ=19_(Al_9.16_Mg_1.28_Ti_1.21_Fe^3+^_0.89_Fe^2+^_0.46_)_Σ=13_Si_18_O_68_((OH)_4.70_F_3.18_O_2.12_)_Σ=10_
Pin_id: L00076
Orientation: Laser parallel to c* (0 0 1). Fiducial mark perpendicular to laser is parallel to a [1 0 0]
Raman shift (cm-1)	intensity
104.109	0
108.298	135.347
112.486	970.469
116.672	434.032
120.855	244.164
125.036	150.396
129.216	220.217
133.393	205.045
137.568	200.395
141.741	177.895
145.911	151.434
150.08	17.575
154.247	0.592
158.411	22.383
162.574	279.417
166.734	515.542
170.893	443.559
175.049	553.329
179.203	860.731
183.355	1047.65
187.505	1132.87
191.653	818.875
195.799	540.755
199.943	332.216
204.084	320.581
208.224	768.506
212.362	1137.81
216.497	1648.97
220.631	2393.49
224.762	2071.67
228.891	1281.46
233.018	862.041
237.144	735.489
241.267	618.761
245.388	593.797
249.507	619.548
253.624	868.964
257.739	875.996
261.852	485.598
265.962	99.728
270.071	46.657
274.178	81.05
278.283	21.892
282.385	166.438
286.486	426.414
290.584	484.724
294.681	442.14
298.775	205.502
302.868	4.274
306.958	116.058
311.047	33.759
315.133	360.2
319.217	873.505
323.299	1266.18
327.38	1639.73
331.458	1884.22
335.534	1550.23
339.608	1082.33
343.681	991.559
347.751	983.442
351.819	935.211
355.885	943.604
359.949	1049.37
364.011	1376.83
368.071	1657.56
372.129	1766.33
376.185	1686.24
380.239	1099.19
384.291	731.151
388.341	551.46
392.389	598.563
396.435	959.196
400.479	1382.92
404.521	2018.72
408.561	2552.57
412.599	3216.48
416.636	3080.41
420.67	2149.36
424.702	1522.32
428.732	927.272
432.76	434.245
436.786	188.237
440.81	105.332
444.832	277.706
448.852	320.153
452.87	283.651
456.887	347.177
460.901	222.716
464.913	184.129
468.923	206.52
472.931	104.493
476.938	15.122
480.942	161.167
484.944	106.113
488.945	179.883
492.943	2.523
496.94	340.062
500.934	622.929
504.927	983.789
508.917	1353.49
512.906	1583.06
516.892	1530.34
520.877	1472.17
524.86	1193.65
528.841	1209.91
532.82	1260.4
536.796	1541.7
540.771	1468.6
544.744	1601.1
548.715	1766.22
552.684	1854.95
556.652	1825.29
560.617	1550.25
564.58	1296.83
568.541	1225.03
572.501	1296.85
576.458	1192.31
580.414	1149.4
584.367	1277.13
588.319	1541.52
592.268	1819.56
596.216	2151.32
600.162	2634.8
604.106	3184.96
608.048	3316.79
611.988	3568.3
615.926	3419.49
619.862	3170.38
623.797	2750.98
627.729	2193.36
631.659	1736.58
635.588	1287.64
639.515	974.983
643.439	752.111
647.362	497.191
651.283	208.997
655.202	29.628
659.119	418.45
663.034	551.384
666.947	559.28
670.859	511.487
674.768	405.528
678.676	33.497
682.581	636.155
686.485	1985.85
690.387	3785.61
694.287	5410.45
698.185	4445.39
702.081	2650.46
705.975	1337.67
709.868	839.047
713.758	882.607
717.647	1336.37
721.533	2228.36
725.418	3684.59
729.301	5711.09
733.182	7857.87
737.061	10355
740.939	13182.4
744.814	15833.9
748.688	17688.2
752.559	18206.7
756.429	16995.5
760.297	14604.8
764.163	12014.5
768.027	9514.69
771.89	7985.32
775.75	7326.55
779.609	7058.52
783.465	6821.41
787.32	6165.39
791.173	5400.5
795.024	4789.68
798.873	4302.92
802.721	4014.56
806.566	3555.47
810.41	3172.26
814.252	3013.92
818.092	2801.85
821.93	2343.72
825.766	1946.73
829.601	1858.36
833.433	1819.72
837.264	1778.02
841.093	1877.42
844.92	2097.93
848.745	2539.5
852.568	3082.58
856.39	3665.67
860.209	3970.28
864.027	4475.88
867.843	4872.52
871.657	4970.17
875.47	4808.8
879.28	4628.41
883.089	4498.98
886.896	4250.51
890.701	4193
894.504	3936.45
898.305	3860.83
902.105	3986.15
905.902	3802.39
909.698	4279.54
913.492	5057.59
917.285	6156.54
921.075	6826.36
924.864	7750.14
928.65	8045.97
932.435	8091.18
936.218	8126
940	8188.72
943.779	8353.54
947.557	8802.46
951.333	8587.13
955.107	8873.95
958.879	9018.8
962.65	8805.84
966.418	7637.72
970.185	6450.01
973.95	5413.05
977.714	4818.01
981.475	4207.93
985.235	4034.31
988.993	3523.81
992.749	2944.79
996.503	2441.96
1000.26	2258.11
1004.01	2123.72
1007.75	2247.74
1011.5	2587.43
1015.25	2457
1018.99	2558.22
1022.73	2671.51
1026.47	2734.03
1030.21	2975.92
1033.95	2957.95
1037.68	3390.37
1041.41	4572.35
1045.15	5194.5
1048.88	4496.23
1052.6	2917.57
1056.33	1696.27
1060.05	992.663
1063.78	487.164
1067.5	156.777
1071.21	1.246
1074.93	124.936
1078.65	152.492
1082.36	234.242
1086.07	196.286
1089.78	159.53
1093.49	166.446
1097.2	241.142
1100.9	243.91
1104.6	126.297
1108.3	233.667
1112	75.501
1115.7	60.8
1119.4	164.46
1123.09	455.355
1126.78	72.986
1130.47	34.062
1134.16	23.098
1137.85	73.178
1141.54	136.26
1145.22	143.088
1148.9	256.966
1152.58	197.457
1156.26	200.864
1159.94	181.03
1163.61	112.605
1167.28	248.889
1170.95	368.332
1174.62	397.327
1178.29	370.531
1181.96	318.579
1185.62	355.539
1189.29	287.738
1192.95	368.792
1196.61	482.35
1200.26	582.636
1203.92	502.13
1207.57	545.938
1211.23	545.42
1214.88	507.469
1218.53	543.492
1222.17	558.373
1225.82	552.599
1229.46	585.862
1233.11	489.419
1236.74	478.226
1240.38	356.001
1244.02	281.421
1247.66	331.876
1251.29	255.614
1254.92	235.596
1258.55	295.065
1262.18	218.317
1265.81	242.969
1269.43	205.51
1273.06	156.725
1276.68	140.237
1280.3	161.703
1283.91	168.04
1287.53	171.907
1291.15	220.239
1294.76	199.807
1298.37	178.794
1301.98	75.413
1305.59	137.515
1309.19	100.508
1312.8	44.844
1316.4	89.394
1320	160.764
1323.6	142.936
1327.2	106.358
1330.8	162.409
1334.39	162.42
1337.98	125.082
1341.58	11.433
1345.16	70.511
1348.75	12.214
1352.34	120.907
1355.92	123.734
1359.51	141.442
1363.09	151.307
1366.67	97.425
1370.24	40.886
1373.82	2.189
1377.39	127.411
1380.97	78.148
1384.54	97.547
1388.11	128.332
1391.68	162.44
1395.24	157.14
1398.81	200.283
1402.37	109.212
1405.93	103.303
1409.49	18.949
1413.05	16.7
1416.6	57.419
1420.16	29.892
1423.71	59.45
1427.26	20.369
1430.81	158.415
1434.36	156.981
1437.91	135.77
1441.45	192.55
1444.99	82.452
1448.54	43.713
1452.08	96.291
1455.61	119.103
1459.15	43.208
1462.68	88.505
1466.22	131.753
1469.75	143.131
1473.28	101.794
1476.81	173.88
1480.33	165.988
1483.86	209.995
1487.38	26.065
1490.9	84.05
1494.42	103.044
1497.94	14.958
1501.46	76.423
1504.97	34.437
1508.49	71.887
1512	76.211
1515.51	245.036
1519.02	0
