Measurement: Raman, 514 nm, ccw, Raman Data Processed
Mineral: Vesuvianite
Rruff sample: R050233
Ideal chemistry: (Ca,Na)_19_(Al,Mg,Fe)_13_(SiO_4_)_10_(Si_2_O_7_)_4_(OH,F,O)_10_
Locality: Ludwig, Nevada, USA
Source: Marcus Origlieri
Description: Pale green euhedral single crystal
Measured chemistry: Ca_19.00_(Al_10.04_Mg_2.54_Fe^2+^_0.42_)_Σ=13_(Si_17.96_Al_0.04_)_Σ=18_O_68_((OH)_9.66_F_0.34_)_Σ=10_ ; Boron not analyzed.
Pin_id: L00354
Orientation: Laser parallel to a* (1 0 0). Fiducial mark perpendicular to laser is parallel to c [0 0 1]
Raman shift (cm-1)	intensity
105.908	0
110.082	268.462
114.254	648.711
118.424	408.727
122.592	180.346
126.758	133.932
130.922	29.518
135.083	334.623
139.243	339.445
143.401	451.674
147.557	272.803
151.711	122.691
155.863	59.576
160.013	392.645
164.161	859.871
168.308	1395.82
172.452	2087.21
176.594	2380.08
180.734	2407.35
184.872	2063.7
189.008	1310.77
193.143	940.002
197.275	702.158
201.405	1265.8
205.534	1462.2
209.66	2184.43
213.784	2751.55
217.907	3351.64
222.027	4058.75
226.146	4038.9
230.263	3231.07
234.377	2323.32
238.49	2247.06
242.601	1927.82
246.709	2141.47
250.816	3331.81
254.921	4143.72
259.024	3209.19
263.125	1925.19
267.224	1264.74
271.321	1447.33
275.416	1285.35
279.51	1372.86
283.601	1693.99
287.69	2487.28
291.778	2538.44
295.863	2229.53
299.947	1766.34
304.029	1770.39
308.108	1961.45
312.186	2289.39
316.262	3067.25
320.336	4237.2
324.408	4311.2
328.478	4698.73
332.546	4034.74
336.612	3352.17
340.677	2322.97
344.739	1620.07
348.799	1273.44
352.858	1429.02
356.915	1906.78
360.969	2403.06
365.022	2493.75
369.073	2713.53
373.122	2676.2
377.169	2956.46
381.215	2704.62
385.258	2677.59
389.299	3506.99
393.339	4352.35
397.376	6454.62
401.412	8568.78
405.446	9539.77
409.478	9883.6
413.508	8625.48
417.536	6781.51
421.562	4324
425.586	2996.56
429.609	1740.28
433.629	832.357
437.648	636.963
441.665	109.906
445.68	172.428
449.693	83.525
453.704	186.943
457.713	225.709
461.721	650.447
465.726	1033.16
469.73	1213.64
473.731	1206.82
477.731	1714.67
481.729	1830.15
485.725	1420.22
489.72	1212.86
493.712	1256.03
497.703	1068.7
501.691	1081.85
505.678	983.457
509.663	838.488
513.646	728.926
517.627	558.74
521.607	205.229
525.584	391.527
529.56	67.457
533.534	5.893
537.506	107.338
541.476	113.154
545.444	70.756
549.41	421.525
553.375	450.129
557.337	432.564
561.298	684.795
565.257	703.166
569.214	1063.04
573.17	1440.32
577.123	2133.32
581.075	3091.17
585.024	3881.24
588.972	5036.23
592.918	4893.85
596.863	4749.4
600.805	4188.2
604.746	4744.12
608.685	4606.46
612.621	4162.62
616.557	4335.76
620.49	3795.55
624.421	3978.28
628.351	3978.99
632.279	4808.09
636.205	4858.67
640.129	5063.41
644.051	4391.8
647.972	3671.66
651.89	2519.97
655.807	1807.13
659.722	1184.9
663.636	1084.49
667.547	926.498
671.457	1500.9
675.365	2347.68
679.271	3441.97
683.175	5412.5
687.077	7448.85
690.978	10162.9
694.877	10810.9
698.774	9155.24
702.669	5800.35
706.562	3930.43
710.454	2013.94
714.344	1236.89
718.232	858.25
722.118	308.027
726.002	283.998
729.885	259.617
733.766	183.256
737.645	220.789
741.522	82.324
745.397	55.238
749.271	86.949
753.143	97.854
757.013	45.346
760.881	187.018
764.748	335.295
768.613	150.686
772.476	248.551
776.337	19.275
780.196	480.096
784.054	334.316
787.91	725.967
791.764	629.098
795.616	901.77
799.467	1105.95
803.316	1738.64
807.163	1633.85
811.008	1851.59
814.851	2144.86
818.693	2466.68
822.533	3036.08
826.371	2955.08
830.208	3895.69
834.042	4527.17
837.875	5521.26
841.706	6779.68
845.536	8752.65
849.363	11581.8
853.189	14302
857.013	16782.4
860.836	17992.8
864.656	16718.9
868.475	15346.7
872.292	14398.3
876.108	13509.6
879.922	13924.1
883.733	14009.1
887.544	13844.8
891.352	13577.4
895.159	12772.9
898.964	12325.8
902.767	12160.1
906.568	12395
910.368	12479.9
914.166	13888.3
917.962	15713.8
921.757	17756.2
925.55	21014.9
929.341	23448.6
933.13	23862
936.918	23650.4
940.703	20861.6
944.488	18050.2
948.27	15808.9
952.051	14585.6
955.83	13884.3
959.607	12640.5
963.383	11773.6
967.156	9996.97
970.928	8729.74
974.699	8385.37
978.468	7402.75
982.234	7087.83
986	5570.83
989.763	4402.64
993.525	3906.97
997.285	3617.34
1001.04	2949.32
1004.8	3011.66
1008.55	3105.06
1012.31	3330.59
1016.06	3375.27
1019.81	3732.48
1023.56	4035.74
1027.31	3932.6
1031.05	3804.77
1034.79	3905.12
1038.53	3964.51
1042.27	3556.51
1046.01	3003.05
1049.75	2341.84
1053.48	1638.02
1057.22	1008.25
1060.95	865.41
1064.68	445.16
1068.4	209.086
1072.13	201.391
1075.86	76.844
1079.58	260.172
1083.3	74.207
1087.02	55.797
1090.74	55.723
1094.45	3.266
1098.17	202.668
1101.88	358.922
1105.59	63.848
1109.3	449.281
1113.01	345.816
1116.71	251.008
1120.42	193.922
1124.12	17.59
1127.82	20.617
1131.52	42.133
1135.22	200.242
1138.91	68.688
1142.61	166.457
1146.3	48.609
1149.99	246.133
1153.68	338.457
1157.37	28.984
1161.06	101.535
1164.74	280.223
1168.42	90.051
1172.1	178.086
1175.78	307.621
1179.46	61.902
1183.14	396.199
1186.81	420.945
1190.48	388.387
1194.15	468.273
1197.83	397.438
1201.49	720.914
1205.16	546.375
1208.82	320.906
1212.49	522.418
1216.15	403.867
1219.81	525.961
1223.46	558.82
1227.12	201.441
1230.78	456.672
1234.43	512.078
1238.08	518.02
1241.73	580.203
1245.38	759.059
1249.03	636.562
1252.67	452.434
1256.31	137.273
1259.95	115.891
1263.6	394.188
1267.23	246.266
1270.87	416.477
1274.51	222.109
1278.14	542.84
1281.77	123.121
1285.4	258.242
1289.03	58.387
1292.66	68.18
1296.28	174.176
1299.91	169.848
1303.53	210.371
1307.15	506.906
1310.77	188.699
1314.38	31.652
1318	171.949
1321.61	40.691
1325.23	521.156
1328.84	43.398
1332.45	564.734
1336.06	294.691
1339.66	593.723
1343.27	262.625
1346.87	665.461
1350.47	715.895
1354.07	725.898
1357.67	1168.68
1361.26	565.742
1364.86	482.703
1368.45	695.758
1372.04	390.969
1375.63	405.27
1379.22	461.137
1382.81	442.832
1386.39	375.965
1389.98	355.082
1393.56	444.102
1397.14	330.59
1400.72	506.926
1404.3	202.793
1407.87	322.031
1411.45	408.773
1415.02	436.094
1418.59	637.969
1422.16	69.875
