Measurement: Raman, 514 nm, ccw, Raman Data Processed
Mineral: Vesuvianite
Rruff sample: R050233
Ideal chemistry: (Ca,Na)_19_(Al,Mg,Fe)_13_(SiO_4_)_10_(Si_2_O_7_)_4_(OH,F,O)_10_
Locality: Ludwig, Nevada, USA
Source: Marcus Origlieri
Description: Pale green euhedral single crystal
Measured chemistry: Ca_19.00_(Al_10.04_Mg_2.54_Fe^2+^_0.42_)_Σ=13_(Si_17.96_Al_0.04_)_Σ=18_O_68_((OH)_9.66_F_0.34_)_Σ=10_ ; Boron not analyzed.
Pin_id: L00354
Orientation: Laser parallel to a* (1 0 0). Fiducial mark perpendicular to laser is parallel to c [0 0 1]
Raman shift (cm-1)	intensity
115.644	0
119.813	93.394
123.981	116.207
128.146	107.16
132.309	179.002
136.47	351.357
140.63	561.168
144.787	607.496
148.942	150.41
153.096	57.059
157.247	430.227
161.396	1203.55
165.544	2181.43
169.689	2539.88
173.833	3254.31
177.974	3713.32
182.114	3307.81
186.251	2623.08
190.387	1671.84
194.52	936.719
198.652	1131.31
202.782	1229.46
206.909	2066.11
211.035	3198.92
215.159	4177.31
219.281	4644.4
223.4	4511.36
227.518	3962.24
231.634	3079.07
235.748	2371.86
239.86	1938.67
243.97	2219.03
248.079	3236.86
252.185	4694.41
256.289	5290.3
260.391	4035.91
264.492	2618.69
268.59	1980.77
272.687	2493.16
276.781	3056.87
280.874	3868.07
284.964	4819.05
289.053	5584.82
293.14	5545.58
297.225	4664.5
301.308	4042.96
305.389	3496.92
309.468	3117.14
313.545	3263.44
317.62	3468.09
321.693	3817.11
325.765	4379.81
329.834	4326.09
333.902	4235.87
337.967	3593.08
342.031	3143.66
346.093	3013.54
350.153	3780.67
354.21	4473.97
358.267	5679.4
362.321	6723.9
366.373	6813.71
370.423	6359.23
374.471	5716.99
378.518	4651.12
382.563	4229.06
386.605	4127.58
390.646	4258.6
394.685	5320.41
398.722	6535.67
402.757	8103.66
406.79	9215
410.821	9717.78
414.851	8373.55
418.878	6408.28
422.904	4525.14
426.927	3079.02
430.949	1640.84
434.969	1173.57
438.987	621.182
443.003	546.758
447.018	499.541
451.03	349.604
455.041	737.029
459.049	588.562
463.056	929.16
467.061	1311.48
471.064	1709.35
475.065	2167.71
479.064	2550.71
483.062	2421.65
487.057	1968.14
491.051	1485.94
495.043	1060.01
499.032	1069.31
503.02	680.818
507.007	767.5
510.991	934.328
514.973	335.275
518.954	99.691
522.933	38.756
526.91	206.393
530.885	486.225
534.858	461.695
538.829	200.758
542.799	1.514
546.766	205.752
550.732	251.248
554.696	42.389
558.658	220.709
562.618	442.635
566.576	263.506
570.533	928.291
574.488	1420.34
578.44	2519.6
582.391	3750.3
586.341	4670.37
590.288	5353.89
594.233	5872.86
598.177	5885.41
602.119	6314.41
606.059	6695.23
609.997	6932.31
613.933	7046.71
617.868	7184.38
621.801	7588.6
625.731	7744.15
629.66	9641
633.588	11372.8
637.513	11853.1
641.437	12315.6
645.358	10945.3
649.278	8159.1
653.196	5368.12
657.113	3610.3
661.027	2682.61
664.94	2483.06
668.851	2853.64
672.76	3034.34
676.667	3587.01
680.572	4993.17
684.476	7815.92
688.378	10780
692.278	12459.2
696.176	11742.4
700.072	8832.83
703.967	5552.85
707.86	3245.11
711.751	2120.95
715.64	932.699
719.527	357.699
723.413	91.891
727.297	363.08
731.179	84.867
735.059	136.35
738.937	187.139
742.814	49.092
746.689	119.004
750.562	79.301
754.433	74.057
758.303	283.227
762.17	7.35
766.036	180.732
769.901	105.92
773.763	305.191
777.624	317.932
781.482	138.234
785.339	610.76
789.195	661.617
793.048	808.908
796.9	1308.73
800.75	1419.99
804.598	1294.71
808.445	1792.86
812.289	2235.47
816.132	2623.55
819.973	3193.12
823.813	3397.2
827.65	4033.81
831.486	4812
835.32	5924.98
839.152	7291.37
842.983	8904.68
846.812	11421
850.639	14346.8
854.464	17732.9
858.288	19546.1
862.11	19196.3
865.93	18584.2
869.748	17465.2
873.564	16441.3
877.379	16453.6
881.192	15973.4
885.004	15824.1
888.813	15525.5
892.621	15402
896.427	14555.6
900.232	14079.2
904.034	14372.9
907.835	14378.1
911.634	15411
915.432	16105.1
919.227	18147.1
923.021	21073
926.813	23742.9
930.604	26248.5
934.393	26513.3
938.18	24205.3
941.965	22080.9
945.749	19426.8
949.53	17669.1
953.311	15850.2
957.089	15773.2
960.866	14732.3
964.641	13139.6
968.414	11465.2
972.185	10697.6
975.955	9667.43
979.723	8758.06
983.49	7298.1
987.254	6215.07
991.017	5468.91
994.779	5087.95
998.538	4030.45
1002.3	4318.25
1006.05	4022.69
1009.81	4049.28
1013.56	3981.33
1017.31	4082.44
1021.06	4306.13
1024.81	4330.01
1028.55	4893.55
1032.3	4327.86
1036.04	4578.71
1039.78	4832.95
1043.52	4385.63
1047.26	3123.81
1050.99	2748.23
1054.73	1716.57
1058.46	1303.98
1062.19	966.957
1065.92	546.844
1069.65	440.848
1073.37	393.641
1077.1	196.855
1080.82	483.707
1084.54	134.012
1088.26	162.73
1091.97	85.168
1095.69	69.246
1099.4	286.398
1103.12	115.527
1106.83	582.176
1110.54	667.551
1114.24	421.695
1117.95	366.922
1121.65	575.867
1125.35	244.582
1129.06	339.648
1132.75	98.938
1136.45	317.574
1140.15	254.945
1143.84	69.137
1147.53	77.188
1151.22	28.41
1154.91	325.895
1158.6	41.602
1162.28	165.812
1165.97	222.25
1169.65	96.176
1173.33	34.129
1177.01	159.875
1180.69	175.883
1184.36	164.676
1188.04	102.395
1191.71	474.23
1195.38	43.473
1199.05	481.73
1202.71	655.316
1206.38	445.746
1210.04	385.152
1213.71	290.551
1217.37	343.227
1221.03	424.406
1224.68	661.875
1228.34	628
1231.99	195.527
1235.65	380.711
1239.3	554.516
1242.95	500.242
1246.59	531.219
1250.24	412.641
1253.88	584.734
1257.53	203.633
1261.17	373.645
1264.81	337.832
1268.45	629.34
1272.08	172.672
1275.72	121.316
1279.35	288.094
1282.98	45.922
1286.61	188.656
1290.24	516.758
1293.87	533.262
1297.49	176.117
1301.11	111.863
1304.73	154.363
1308.36	271.656
1311.97	357.902
1315.59	404.219
1319.2	503.977
1322.82	462.477
1326.43	408.012
1330.04	502.012
1333.65	411.484
1337.26	547.031
1340.86	597.68
1344.47	572.402
1348.07	614.207
1351.67	320.461
1355.27	666.977
1358.87	447.824
1362.46	220.672
1366.06	380.043
1369.65	85.844
1373.24	289.309
1376.83	149.09
1380.42	0
