Measurement: Raman, 514 nm, ccw, Raman Data Processed
Mineral: Vesuvianite
Rruff sample: R050035
Ideal chemistry: (Ca,Na)_19_(Al,Mg,Fe)_13_(SiO_4_)_10_(Si_2_O_7_)_4_(OH,F,O)_10_
Locality: Olmsteadville, New York, USA
Source: University of Arizona Mineral Museum
Description: Brown single crystal fragment
Measured chemistry: (Ca_18.66_Na_0.34_)_Σ=19_(Al_9.16_Mg_1.28_Ti_1.21_Fe^3+^_0.89_Fe^2+^_0.46_)_Σ=13_Si_18_O_68_((OH)_4.70_F_3.18_O_2.12_)_Σ=10_
Pin_id: M00130
Orientation: Laser parallel to a* (1 0 0). Fiducial mark perpendicular to laser is parallel to c [0 0 1]
Raman shift (cm-1)	intensity
126.163	0
130.342	40.623
134.518	1.861
138.692	115.99
142.864	167.217
147.034	20.129
151.201	16.692
155.367	46.423
159.53	210.96
163.692	384.225
167.851	598.857
172.008	632.29
176.163	824.025
180.316	1005.16
184.467	1334.55
188.616	1229.9
192.762	870.056
196.907	510.886
201.049	383.602
205.189	563.376
209.328	829.426
213.464	1336.93
217.598	2176.86
221.73	2702.1
225.86	2351.4
229.988	1382.82
234.113	933.014
238.237	998.557
242.359	885.702
246.478	758.667
250.595	947.491
254.711	1248.13
258.824	1045.54
262.935	490.67
267.044	109.484
271.151	3.066
275.256	35.978
279.359	274.575
283.46	451.68
287.559	774.26
291.656	885.559
295.75	744.383
299.843	345.976
303.933	156.897
308.022	79.459
312.108	288.757
316.193	609.94
320.275	1117.15
324.355	1576.05
328.434	2052.32
332.51	1987.24
336.584	1484.92
340.656	1210.39
344.726	988.263
348.794	1097.02
352.86	1050.1
356.924	1196.35
360.986	1261.27
365.046	1550.01
369.104	1909.06
373.159	2123.42
377.213	1807.07
381.265	1235.99
385.315	659.186
389.362	409.624
393.408	674.26
397.451	1016.07
401.493	1574.04
405.533	2403.16
409.57	3276.43
413.606	3699.81
417.639	3403.31
421.671	2476.9
425.7	1481.58
429.728	902.317
433.753	462.021
437.777	254.806
441.798	176.689
445.818	283.599
449.835	332.526
453.851	405.478
457.864	307.557
461.876	341.763
465.885	194.081
469.893	155.404
473.898	31.904
477.902	62.607
481.903	153.56
485.903	119.353
489.9	43.091
493.896	191.639
497.889	396.533
501.881	700.266
505.87	1242.51
509.858	1633.35
513.844	1801.07
517.827	1827.67
521.809	1794.46
525.789	1473.07
529.766	1315.34
533.742	1583.29
537.716	1524.9
541.688	1744.17
545.657	2015.82
549.625	2116.74
553.591	2011.02
557.555	1883.99
561.517	1616.63
565.477	1502.96
569.435	1479.97
573.391	1292.68
577.345	1259.09
581.297	1215.2
585.248	1436.02
589.196	1812.57
593.142	2048.84
597.086	2708.85
601.029	3283.59
604.969	3768.1
608.908	4072.36
612.844	4026.39
616.779	3950.2
620.712	3663.8
624.642	3337.2
628.571	2620.42
632.498	1979.47
636.423	1755.98
640.346	1291.81
644.267	969.292
648.186	684.286
652.103	263.181
656.019	47.224
659.932	396.522
663.843	581.2
667.753	729.594
671.66	614.936
675.566	452.473
679.47	96.952
683.372	906.128
687.271	2317.48
691.169	4751.02
695.065	6218.78
698.96	4866.78
702.852	2825.05
706.742	1163.6
710.631	833.467
714.517	939.663
718.402	1743.21
722.284	2701.14
726.165	4381.46
730.044	6522.2
733.921	9653.37
737.796	12645
741.669	15987.1
745.54	18949.7
749.41	20712.9
753.277	21076.6
757.143	19630.8
761.006	16295.6
764.868	13081
768.728	10437.1
772.586	9023.78
776.442	8961.43
780.297	8600.24
784.149	8170.27
787.999	7211.51
791.848	6484.15
795.695	5568.5
799.54	5114.75
803.382	4762.92
807.224	4072.62
811.063	3580.57
814.9	3011.23
818.736	3061.35
822.569	2707.85
826.401	2339.56
830.231	2006.39
834.059	1923.64
837.885	1932.26
841.709	2182.19
845.532	2583.38
849.352	3185.84
853.171	3849.58
856.988	4524.53
860.803	5140.69
864.616	5798.07
868.427	6046.65
872.236	5776.41
876.044	5687.35
879.849	5649.45
883.653	5242.7
887.455	5147.1
891.255	4862.64
895.054	4459.3
898.85	4397.09
902.645	4574.1
906.438	4765.98
910.229	5417.05
914.018	6289.19
917.805	7202.37
921.59	8376.64
925.374	9263.94
929.156	9801.81
932.936	9788.77
936.714	9944.45
940.49	9891.76
944.264	9979.65
948.037	10269.9
951.808	10593.1
955.577	10502.9
959.344	10654.8
963.109	9777.07
966.872	8876.18
970.634	7674.63
974.394	6423.9
978.152	5678.08
981.908	5406.73
985.663	4721.69
989.415	4069.8
993.166	3542.85
996.915	3054.62
1000.66	2905.87
1004.41	2818.51
1008.15	2987.35
1011.89	2986.31
1015.63	3242.62
1019.37	3222.56
1023.11	3322.76
1026.84	3292.38
1030.57	3466.73
1034.31	3670.06
1038.03	4346.48
1041.76	5655.4
1045.49	6305.16
1049.21	5123.89
1052.93	3380.94
1056.65	2183.72
1060.37	1173.21
1064.09	388.31
1067.8	44.186
1071.52	112.153
1075.23	220.766
1078.94	260.312
1082.64	188.12
1086.35	163.433
1090.05	251.047
1093.76	247.793
1097.46	228.205
1101.16	274.462
1104.85	197.884
1108.55	54.354
1112.24	18.757
1115.93	84.633
1119.62	202.811
1123.31	259.57
1127	98.411
1130.68	108.199
1134.37	134.307
1138.05	167.386
1141.72	153.996
1145.4	228.752
1149.08	146.396
1152.75	203.342
1156.42	289.133
1160.1	323.656
1163.76	349.85
1167.43	362.795
1171.1	352.401
1174.76	387.667
1178.42	375.897
1182.08	368.767
1185.74	445.249
1189.4	453.99
1193.05	538.899
1196.7	564.409
1200.36	569.101
1204.01	570.367
1207.65	539.405
1211.3	581.663
1214.94	632.373
1218.59	702.629
1222.23	716.062
1225.87	639.458
1229.5	635.231
1233.14	529.6
1236.77	478.82
1240.41	394.93
1244.04	419.73
1247.66	332.402
1251.29	377.054
1254.92	387.966
1258.54	302.9
1262.16	221.182
1265.78	209.363
1269.4	196.703
1273.02	248.649
1276.63	215.484
1280.25	281.723
1283.86	278.382
1287.47	280.065
1291.08	281.308
1294.68	129.405
1298.29	126.744
1301.89	141.675
1305.49	105.038
1309.09	223
1312.69	185.328
1316.29	257.822
1319.88	199.76
1323.47	206.994
1327.06	151.813
1330.65	123.712
1334.24	15.988
1337.83	77.053
1341.41	117.227
1344.99	239.473
1348.57	277.147
1352.15	192.359
1355.73	196.892
1359.31	261.533
1362.88	186.597
1366.45	128.978
1370.02	58.83
1373.59	3.417
1377.16	91.863
1380.73	117.771
1384.29	226.022
1387.85	208.941
1391.41	199.493
1394.97	222.707
1398.53	161.724
1402.09	18.744
1405.64	89.348
1409.19	41.741
1412.74	30.648
1416.29	109.409
1419.84	48.495
1423.38	228.492
1426.93	112.73
1430.47	117.386
1434.01	97.096
1437.55	125.774
1441.09	42.233
1444.62	74.537
1448.16	78.047
1451.69	103.358
1455.22	69.368
1458.75	160.294
1462.28	214.355
1465.8	203.152
1469.33	210.283
1472.85	224.087
1476.37	95.873
1479.89	115.369
1483.4	1.633
1486.92	49.028
1490.43	32.954
1493.95	53.555
1497.46	121.455
1500.97	0
