Measurement: Raman, 514 nm, ccw, Raman Data Processed
Mineral: Vesuvianite
Rruff sample: R050035
Ideal chemistry: (Ca,Na)_19_(Al,Mg,Fe)_13_(SiO_4_)_10_(Si_2_O_7_)_4_(OH,F,O)_10_
Locality: Olmsteadville, New York, USA
Source: University of Arizona Mineral Museum
Description: Brown single crystal fragment
Measured chemistry: (Ca_18.66_Na_0.34_)_Σ=19_(Al_9.16_Mg_1.28_Ti_1.21_Fe^3+^_0.89_Fe^2+^_0.46_)_Σ=13_Si_18_O_68_((OH)_4.70_F_3.18_O_2.12_)_Σ=10_
Pin_id: M00130
Orientation: Laser parallel to a* (1 0 0). Fiducial mark perpendicular to laser is parallel to c [0 0 1]
Raman shift (cm-1)	intensity
151.201	0
155.367	139.241
159.53	362.416
163.692	517.844
167.851	201.83
172.008	35.073
176.163	372.176
180.316	1339.72
184.467	2385.39
188.616	2237.59
192.762	1345.4
196.907	517.736
201.049	493.886
205.189	793.394
209.328	1205.71
213.464	1730.33
217.598	2356.95
221.73	1945.91
225.86	1297.06
229.988	661.282
234.113	615.473
238.237	890.147
242.359	916.728
246.478	994.085
250.595	1872.88
254.711	2642.91
258.824	3013.24
262.935	2513.77
267.044	1934.49
271.151	1355.4
275.256	1326.45
279.359	1747.81
283.46	2072.79
287.559	2811.94
291.656	2731.67
295.75	1800.9
299.843	879.609
303.933	137.803
308.022	60.539
312.108	182.566
316.193	574.353
320.275	1099
324.355	1621.02
328.434	2058.5
332.51	2756.17
336.584	3507.92
340.656	4488.58
344.726	5784.69
348.794	7180.06
352.86	8371.41
356.924	9477.47
360.986	10981.1
365.046	13184.9
369.104	15808.8
373.159	16232.9
377.213	13847
381.265	11271.2
385.315	9115.29
389.362	7659.36
393.408	6673.35
397.451	5747.2
401.493	4943.59
405.533	4233.92
409.57	3826.51
413.606	3225.44
417.639	2731.27
421.671	1968.13
425.7	1392.23
429.728	952.274
433.753	490.963
437.777	391.286
441.798	390.236
445.818	543.78
449.835	878.853
453.851	1246.43
457.864	1547.51
461.876	1606.09
465.885	1374.19
469.893	1054.16
473.898	720.095
477.902	365.961
481.903	50.338
485.903	112.019
489.9	80.747
493.896	199.655
497.889	171.092
501.881	26.931
505.87	86.894
509.858	33.825
513.844	159.139
517.827	373.424
521.809	467.057
525.789	436.973
529.766	398.441
533.742	699.466
537.716	626.049
541.688	954.193
545.657	980.903
549.625	1022.18
553.591	871.043
557.555	396.63
561.517	129.238
565.477	244.099
569.435	362.04
573.391	278.278
577.345	205.831
581.297	91.041
585.248	435.274
589.196	590.165
593.142	872.726
597.086	1383.97
601.029	1852.92
604.969	2396.58
608.908	3239.98
612.844	3993.12
616.779	4706.04
620.712	5338.75
624.642	5731.28
628.571	6343.66
632.498	6815.93
636.423	7188.09
640.346	7106.59
644.267	6345.15
648.186	4935.83
652.103	3161.17
656.019	1679.95
659.932	787.881
663.843	77.655
667.753	227.889
671.66	302.347
675.566	162.492
679.47	370.575
683.372	1009.85
687.271	2109.36
691.169	3851.12
695.065	4773.15
698.96	3595.47
702.852	2148.1
706.742	988.046
710.631	264.339
714.517	21.99
718.402	16.176
722.284	86.01
726.165	45.188
730.044	539.209
733.921	1464.94
737.796	2364.87
741.669	3501.65
745.54	4849.08
749.41	5607.18
753.277	5975.95
757.143	5735.41
761.006	4855.59
764.868	3986.5
768.728	3168.4
772.586	2711.45
776.442	2765.83
780.297	2851.57
784.149	3028.69
787.999	2997.26
791.848	3027.2
795.695	2968.44
799.54	2851.36
803.382	2755.94
807.224	2171.91
811.063	1789.01
814.9	1477.29
818.736	1396.66
822.569	1067.55
826.401	875.666
830.231	635.399
834.059	589.63
837.885	799.783
841.709	1228.85
845.532	1934.8
849.352	2821.64
853.171	3709.38
856.988	4528
860.803	5447.5
864.616	6277.87
868.427	6618.95
872.236	6769.95
876.044	6464.08
879.849	6037.66
883.653	5104.64
887.455	4913.26
891.255	4583.1
895.054	4183.79
898.85	4165.23
902.645	4247.43
906.438	4810.37
910.229	5714.02
914.018	6938.51
917.805	8081
921.59	9443.79
925.374	10119.3
929.156	10003.4
932.936	9322.75
936.714	8698.87
940.49	8384.47
944.264	8056.95
948.037	8141.47
951.808	8531.65
955.577	8897.16
959.344	9567.38
963.109	9202.09
966.872	8707.03
970.634	7678.49
974.394	6748.05
978.152	6021.71
981.908	5585.84
985.663	5032.23
989.415	4497.65
993.166	4122.39
996.915	3716.55
1000.66	3551.31
1004.41	3440.11
1008.15	3240.45
1011.89	3015.74
1015.63	2790.54
1019.37	2525.67
1023.11	2410.73
1026.84	2216.13
1030.57	2175.07
1034.31	2251.3
1038.03	2421.27
1041.76	2797.98
1045.49	2909.18
1049.21	2147.91
1052.93	1384.5
1056.65	814.031
1060.37	408.981
1064.09	62.657
1067.8	128.524
1071.52	154.942
1075.23	220.666
1078.94	124.006
1082.64	144.062
1086.35	202.354
1090.05	104.575
1093.76	141.104
1097.46	143.517
1101.16	114.586
1104.85	9.079
1108.55	35.918
1112.24	192.062
1115.93	360.951
1119.62	434.408
1123.31	484.282
1127	255.288
1130.68	234.3
1134.37	329.531
1138.05	278.995
1141.72	344.173
1145.4	367.985
1149.08	286.924
1152.75	285.185
1156.42	309.958
1160.1	468.997
1163.76	484.811
1167.43	444.964
1171.1	503.483
1174.76	508.314
1178.42	534.792
1182.08	504.578
1185.74	531.667
1189.4	549.231
1193.05	647.665
1196.7	692.36
1200.36	634.464
1204.01	601.48
1207.65	553.704
1211.3	612.203
1214.94	612.586
1218.59	585.44
1222.23	573.032
1225.87	493.697
1229.5	518.345
1233.14	505.397
1236.77	371.151
1240.41	333.184
1244.04	292.705
1247.66	273.344
1251.29	263.219
1254.92	242.717
1258.54	204.463
1262.16	205.854
1265.78	119.636
1269.4	165.637
1273.02	122.014
1276.63	123.484
1280.25	157.444
1283.86	253.851
1287.47	187.75
1291.08	174.901
1294.68	111.446
1298.29	205.817
1301.89	116.817
1305.49	117.627
1309.09	210.674
1312.69	209.844
1316.29	164.278
1319.88	227.338
1323.47	160.743
1327.06	139.49
1330.65	63.726
1334.24	134.449
1337.83	94.318
1341.41	61.489
1344.99	65.039
1348.57	209.572
1352.15	156.863
1355.73	181.26
1359.31	164.446
1362.88	131.742
1366.45	89.512
1370.02	56.929
1373.59	65.278
1377.16	3.156
1380.73	76.018
1384.29	111.586
1387.85	122.898
1391.41	151.291
1394.97	230.767
1398.53	134.232
1402.09	61.198
1405.64	31.356
1409.19	59.596
1412.74	58.005
1416.29	58.51
1419.84	103.799
1423.38	143.917
1426.93	84.2
1430.47	137.375
1434.01	102.146
1437.55	104.504
1441.09	57.908
1444.62	57.908
1448.16	19.857
1451.69	50.971
1455.22	19.891
1458.75	84.621
1462.28	87.586
1465.8	127.883
1469.33	154.738
1472.85	165.163
1476.37	244.856
1479.89	102.809
1483.4	33.49
1486.92	135.994
1490.43	102.14
1493.95	90.281
1497.46	112.675
1500.97	125.684
1504.47	194.783
1507.98	238.982
1511.48	301.43
1514.99	120.293
