Measurement: Raman, 514 nm, ccw, Raman Data Processed
Mineral: Vesuvianite
Rruff sample: R050233
Ideal chemistry: (Ca,Na)_19_(Al,Mg,Fe)_13_(SiO_4_)_10_(Si_2_O_7_)_4_(OH,F,O)_10_
Locality: Ludwig, Nevada, USA
Source: Marcus Origlieri
Description: Pale green euhedral single crystal
Measured chemistry: Ca_19.00_(Al_10.04_Mg_2.54_Fe^2+^_0.42_)_Σ=13_(Si_17.96_Al_0.04_)_Σ=18_O_68_((OH)_9.66_F_0.34_)_Σ=10_ ; Boron not analyzed.
Pin_id: L00354
Orientation: Laser parallel to a* (1 0 0). Fiducial mark perpendicular to laser is parallel to c [0 0 1]
Raman shift (cm-1)	intensity
118.424	0
122.592	91.457
126.758	54.121
130.922	76.996
135.083	255.627
139.243	588.371
143.401	607.971
147.557	147.406
151.711	34.516
155.863	342.582
160.013	1366.91
164.161	2395.55
168.308	3022.44
172.452	3648.32
176.594	3806.45
180.734	3725.26
184.872	2982.78
189.008	1993.18
193.143	1062.95
197.275	580.623
201.405	928.688
205.534	2152.15
209.66	3351.32
213.784	4410.02
217.907	5123.64
222.027	4797.36
226.146	3824.32
230.263	2831.44
234.377	2131.17
238.49	1832.29
242.601	2133.02
246.709	2831.68
250.816	5010.13
254.921	6378.68
259.024	5706.1
263.125	3875.4
267.224	2960.2
271.321	2989.5
275.416	3549.32
279.51	4327.64
283.601	5357.57
287.69	6439.72
291.778	6335.33
295.863	5714.17
299.947	4805.07
304.029	4309.37
308.108	3843.71
312.186	3436.78
316.262	3771.83
320.336	4583.66
324.408	4894.6
328.478	5274.49
332.546	5316.14
336.612	4768.65
340.677	4232.75
344.739	4313.4
348.799	4704.54
352.858	6022.08
356.915	7756.95
360.969	9613.25
365.022	10091.5
369.073	9482.91
373.122	8220.75
377.169	7501.78
381.215	6006.12
385.258	4958.19
389.299	4805.75
393.339	5177.22
397.376	6742.55
401.412	8558.72
405.446	9569.69
409.478	10115.5
413.508	8843
417.536	7054.3
421.562	4612.48
425.586	3240.62
429.609	1638.75
433.629	833.635
437.648	835.484
441.665	185.471
445.68	651.697
449.693	579.402
453.704	762.562
457.713	1072.91
461.721	1264.26
465.726	1730.49
469.73	2378.34
473.731	2562.75
477.731	3237.64
481.729	3080.96
485.725	2451.66
489.72	1628.69
493.712	1529.04
497.703	1077.64
501.691	1030.48
505.678	574.512
509.663	480.703
513.646	565.021
517.627	301.438
521.607	94.375
525.584	582.809
529.56	129.85
533.534	305.545
537.506	187.121
541.476	88.262
545.444	279.146
549.41	343.828
553.375	178.363
557.337	103.449
561.298	164.99
565.257	599.805
569.214	924.619
573.17	1442.76
577.123	2054.83
581.075	3199.88
585.024	4383.7
588.972	5785.03
592.918	6173.82
596.863	6819.45
600.805	7301.54
604.746	8387.63
608.685	8404.9
612.621	8385.04
616.557	8896.08
620.49	8928.32
624.421	10428.4
628.351	11458.9
632.279	13751.4
636.205	15961.2
640.129	16088.2
644.051	14583.2
647.972	11573.4
651.89	8484.71
655.807	5191.1
659.722	4084.58
663.636	3423.13
667.547	2840.75
671.457	3219.43
675.365	4235.16
679.271	5531.04
683.175	8223.25
687.077	10943.5
690.978	13992.7
694.877	13657.5
698.774	11297.9
702.669	6987.08
706.562	4668.86
710.454	2264.84
714.344	1464.02
718.232	770.387
722.118	329.924
726.002	388.25
729.885	212.734
733.766	200.494
737.645	11.02
741.522	87.994
745.397	25.258
749.271	383.818
753.143	10.068
757.013	38.492
760.881	375.111
764.748	260.941
768.613	69.404
772.476	181.396
776.337	92.006
780.196	467.578
784.054	546.365
787.91	804.436
791.764	1004.85
795.616	890.725
799.467	1391.16
803.316	2007.04
807.163	1934.33
811.008	2171.03
814.851	2546.16
818.693	3218.73
822.533	3593.9
826.371	3980.65
830.208	5049.19
834.042	5862.67
837.875	7023.57
841.706	8492.15
845.536	10702.9
849.363	13896.1
853.189	17026.4
857.013	20055.5
860.836	21243.5
864.656	19769.4
868.475	18646.8
872.292	17348.6
876.108	16589.8
879.922	16801.8
883.733	16744.3
887.544	16372.8
891.352	16077.9
895.159	15181.7
898.964	14658.7
902.767	14533.9
906.568	14655.9
910.368	14703.3
914.166	16273.9
917.962	18135.6
921.757	19774.6
925.55	22950.5
929.341	25810.9
933.13	26317.6
936.918	25983.6
940.703	23205.1
944.488	20855.5
948.27	18515.6
952.051	16922.8
955.83	16289.3
959.607	15442.1
963.383	14113.6
967.156	12230.3
970.928	10910.5
974.699	10160.7
978.468	9488.34
982.234	8822.49
986	6996.86
989.763	5767.58
993.525	4829.07
997.285	4782.02
1001.04	3678.36
1004.8	3929.5
1008.55	3898.65
1012.31	4002.53
1016.06	3957.48
1019.81	4074.61
1023.56	4541.19
1027.31	4183.65
1031.05	4095.06
1034.79	4343.65
1038.53	4298.66
1042.27	4379.97
1046.01	3630.96
1049.75	2545.78
1053.48	1700.12
1057.22	1479.98
1060.95	1016.13
1064.68	620.535
1068.4	353.254
1072.13	340.152
1075.86	187.508
1079.58	209.309
1083.3	302.871
1087.02	261.621
1090.74	113.664
1094.45	395.336
1098.17	1.992
1101.88	393.328
1105.59	175.824
1109.3	699.699
1113.01	501.309
1116.71	530.484
1120.42	43.668
1124.12	283.117
1127.82	264.559
1131.52	15.301
1135.22	348.242
1138.91	234.273
1142.61	406.418
1146.3	172.148
1149.99	22.281
1153.68	66.82
1157.37	180.988
1161.06	92.809
1164.74	528.012
1168.42	143.414
1172.1	144.496
1175.78	268.836
1179.46	87.617
1183.14	437.18
1186.81	540.141
1190.48	273.543
1194.15	324.574
1197.83	231.527
1201.49	813.105
1205.16	359.645
1208.82	276.008
1212.49	460.402
1216.15	446.496
1219.81	463.004
1223.46	564.566
1227.12	149.863
1230.78	295.863
1234.43	521.281
1238.08	435.609
1241.73	630.703
1245.38	506.867
1249.03	905.848
1252.67	391.055
1256.31	188.562
1259.95	7.137
1263.6	392.973
1267.23	249.746
1270.87	469.453
1274.51	283.633
1278.14	534.16
1281.77	239.367
1285.4	219.133
1289.03	79.438
1292.66	343.605
1296.28	126.371
1299.91	481.738
1303.53	301.75
1307.15	453.93
1310.77	284.445
1314.38	387.508
1318	78.047
1321.61	92.238
1325.23	783.371
1328.84	178.211
1332.45	444.09
1336.06	371.758
1339.66	370.371
1343.27	327.465
1346.87	698.141
1350.47	528.402
1354.07	502.797
1357.67	721.574
1361.26	269.625
1364.86	391.879
1368.45	466.922
1372.04	0
