Measurement: Raman, 514 nm, ccw, Raman Data Processed
Mineral: Vesuvianite
Rruff sample: R050035
Ideal chemistry: (Ca,Na)_19_(Al,Mg,Fe)_13_(SiO_4_)_10_(Si_2_O_7_)_4_(OH,F,O)_10_
Locality: Olmsteadville, New York, USA
Source: University of Arizona Mineral Museum
Description: Brown single crystal fragment
Measured chemistry: (Ca_18.66_Na_0.34_)_Σ=19_(Al_9.16_Mg_1.28_Ti_1.21_Fe^3+^_0.89_Fe^2+^_0.46_)_Σ=13_Si_18_O_68_((OH)_4.70_F_3.18_O_2.12_)_Σ=10_
Pin_id: M00130
Orientation: Laser parallel to a* (1 0 0). Fiducial mark perpendicular to laser is parallel to c [0 0 1]
Raman shift (cm-1)	intensity
130.342	0
134.518	22.697
138.692	211.506
142.864	425.877
147.034	154.637
151.201	24.723
155.367	54.081
159.53	213.295
163.692	484.839
167.851	442.977
172.008	569.119
176.163	735.709
180.316	946.341
184.467	1154.24
188.616	932.124
192.762	587.656
196.907	221.616
201.049	211.819
205.189	267.126
209.328	364.409
213.464	599.514
217.598	1058.82
221.73	1126.22
225.86	1037.43
229.988	556.743
234.113	569.281
238.237	682.913
242.359	673.593
246.478	580.499
250.595	968.739
254.711	1140.31
258.824	1096.18
262.935	836.329
267.044	606.722
271.151	536.338
275.256	696.293
279.359	1294.44
283.46	1729.71
287.559	2075.05
291.656	2035.44
295.75	1593.42
299.843	1188.82
303.933	832.067
308.022	760.634
312.108	778.985
316.193	1068.66
320.275	1242.62
324.355	1548.5
328.434	1717.61
332.51	1792.46
336.584	1862.87
340.656	2102.49
344.726	2308.68
348.794	2682.93
352.86	2888.47
356.924	3255.34
360.986	3543.21
365.046	4031.65
369.104	4560.2
373.159	4768.81
377.213	4177.45
381.265	3406.12
385.315	2647.82
389.362	2450.53
393.408	2310.21
397.451	2272.81
401.493	2413.33
405.533	2685.76
409.57	3167.59
413.606	3229.02
417.639	2846.53
421.671	2067.94
425.7	1281.76
429.728	719.439
433.753	358.96
437.777	172.316
441.798	163.498
445.818	127.5
449.835	226.315
453.851	373.94
457.864	422.383
461.876	353.714
465.885	308.933
469.893	161.026
473.898	13.983
477.902	15.367
481.903	166.328
485.903	85.468
489.9	59.816
493.896	85.882
497.889	115.2
501.881	331.208
505.87	641.146
509.858	789.914
513.844	917.013
517.827	879.792
521.809	807.09
525.789	793.165
529.766	692.005
533.742	733.433
537.716	654.449
541.688	768.388
545.657	803.25
549.625	809.038
553.591	696.419
557.555	578.399
561.517	453.979
565.477	370.163
569.435	250.135
573.391	296.22
577.345	287.064
581.297	371.512
585.248	556.584
589.196	757.293
593.142	963.644
597.086	1287.64
601.029	1646.3
604.969	1917.62
608.908	2238.61
612.844	2388.28
616.779	2574.63
620.712	2546.68
624.642	2491.45
628.571	2391.93
632.498	2209.24
636.423	2097.19
640.346	2011.78
644.267	1589.63
648.186	1103.1
652.103	636.535
656.019	160.633
659.932	167.389
663.843	343.509
667.753	415.64
671.66	445.112
675.566	327.866
679.47	93.182
683.372	295.95
687.271	1070.1
691.169	2256.27
695.065	3098.48
698.96	2262.76
702.852	1211.12
706.742	398.572
710.631	127.133
714.517	82.82
718.402	410.649
722.284	706.636
726.165	1412.97
730.044	2288.09
733.921	3603.18
737.796	4902.92
741.669	6272.95
745.54	7713.22
749.41	8533.77
753.277	8784.59
757.143	8415.72
761.006	7297.15
764.868	6128.91
768.728	5341.02
772.586	5213.58
776.442	5536.74
780.297	5650.56
784.149	5615.14
787.999	5260.55
791.848	5037
795.695	4454.61
799.54	4083.66
803.382	3764.06
807.224	3345.63
811.063	2910.04
814.9	2614.47
818.736	2585.47
822.569	2319.51
826.401	2147.28
830.231	1736.99
834.059	1682.68
837.885	1839.65
841.709	1960.39
845.532	2315.89
849.352	2700.12
853.171	3188.06
856.988	3588.75
860.803	4150.15
864.616	4442.26
868.427	4485.07
872.236	4498.74
876.044	4282.78
879.849	4097.69
883.653	3573.34
887.455	3679.68
891.255	3446.7
895.054	3194.39
898.85	3138.74
902.645	3251.75
906.438	3551.4
910.229	4071.69
914.018	4742.61
917.805	5344.15
921.59	6207.9
925.374	6646.61
929.156	6879.98
932.936	6660.68
936.714	6570.19
940.49	6551.22
944.264	6308.96
948.037	6558.22
951.808	6776.93
955.577	6816.63
959.344	6954.9
963.109	6633.03
966.872	6260.26
970.634	5510.65
974.394	4852.43
978.152	4386.79
981.908	4194.53
985.663	3742.23
989.415	3275.36
993.166	2762.68
996.915	2546.79
1000.66	2434.76
1004.41	2250.34
1008.15	2224.14
1011.89	2103.99
1015.63	2118.31
1019.37	2097.18
1023.11	1997.83
1026.84	1906.32
1030.57	2098.69
1034.31	2000.06
1038.03	2434.26
1041.76	2928.98
1045.49	3222.85
1049.21	2495.55
1052.93	1683.81
1056.65	1007.92
1060.37	498.435
1064.09	160.102
1067.8	37.373
1071.52	140.507
1075.23	107.014
1078.94	77.375
1082.64	41.812
1086.35	152.337
1090.05	150.197
1093.76	201.275
1097.46	223.302
1101.16	147.464
1104.85	127.916
1108.55	26.835
1112.24	24.176
1115.93	78.434
1119.62	120.684
1123.31	75.183
1127	33.922
1130.68	84.83
1134.37	140.696
1138.05	154.965
1141.72	142.189
1145.4	142.661
1149.08	128.011
1152.75	107.831
1156.42	181.191
1160.1	262.88
1163.76	284.324
1167.43	266.028
1171.1	284.986
1174.76	326.107
1178.42	350.593
1182.08	329.496
1185.74	387.596
1189.4	454.193
1193.05	407.24
1196.7	455.301
1200.36	456.862
1204.01	461.261
1207.65	381.263
1211.3	383.863
1214.94	466.5
1218.59	522.516
1222.23	515.226
1225.87	430.042
1229.5	495.252
1233.14	430.582
1236.77	420.004
1240.41	299.915
1244.04	247.934
1247.66	245.102
1251.29	253.996
1254.92	307.731
1258.54	308.051
1262.16	112.101
1265.78	149.032
1269.4	119.583
1273.02	132.236
1276.63	126.875
1280.25	170.384
1283.86	181.472
1287.47	231.025
1291.08	255.66
1294.68	139.432
1298.29	128.831
1301.89	68.923
1305.49	110.29
1309.09	90.038
1312.69	138.446
1316.29	218.964
1319.88	252.126
1323.47	157.976
1327.06	172.244
1330.65	117.678
1334.24	59.422
1337.83	118.192
1341.41	16.746
1344.99	132.412
1348.57	120.366
1352.15	237.766
1355.73	170.29
1359.31	170.776
1362.88	78.948
1366.45	100.712
1370.02	68.269
1373.59	62.82
1377.16	18.918
1380.73	94.764
1384.29	166.296
1387.85	188.868
1391.41	127.254
1394.97	167.829
1398.53	87.929
1402.09	58.278
1405.64	77.847
1409.19	14.539
1412.74	55.706
1416.29	104.082
1419.84	17.163
1423.38	104.172
1426.93	109.372
1430.47	155.334
1434.01	47.166
1437.55	67.844
1441.09	21.677
1444.62	49.549
1448.16	8.26
1451.69	22.094
1455.22	6.867
1458.75	112.994
1462.28	131.353
1465.8	157.798
1469.33	210.844
1472.85	231.109
1476.37	138.368
1479.89	0.321
1483.4	31.099
1486.92	8.878
1490.43	4.928
1493.95	28.778
1497.46	30.735
1500.97	133.525
1504.47	166.541
1507.98	205.45
1511.48	255.307
1514.99	108.221
1518.49	74.395
