Measurement: Raman, 514 nm, ccw, Raman Data Processed
Mineral: Vesuvianite
Rruff sample: R050035
Ideal chemistry: (Ca,Na)_19_(Al,Mg,Fe)_13_(SiO_4_)_10_(Si_2_O_7_)_4_(OH,F,O)_10_
Locality: Olmsteadville, New York, USA
Source: University of Arizona Mineral Museum
Description: Brown single crystal fragment
Measured chemistry: (Ca_18.66_Na_0.34_)_Σ=19_(Al_9.16_Mg_1.28_Ti_1.21_Fe^3+^_0.89_Fe^2+^_0.46_)_Σ=13_Si_18_O_68_((OH)_4.70_F_3.18_O_2.12_)_Σ=10_
Pin_id: L00076
Orientation: Laser parallel to c* (0 0 1). Fiducial mark perpendicular to laser is parallel to a [1 0 0]
Raman shift (cm-1)	intensity
148.691	0
152.858	14.366
157.024	32.409
161.187	176.578
165.348	353.455
169.507	522.196
173.664	633.382
177.819	681.736
181.971	970.563
186.122	1004.38
190.271	710.509
194.417	314.563
198.562	79.498
202.704	104.772
206.844	304.029
210.983	514.029
215.119	1157.57
219.253	1520.48
223.385	1634.6
227.515	1029.79
231.643	621.933
235.769	596.611
239.893	575.293
244.014	412.86
248.134	542.43
252.252	859.267
256.367	891.641
260.481	585.625
264.592	206.198
268.702	90.308
272.809	92.958
276.915	264.175
281.018	542.58
285.119	913.476
289.218	1029.7
293.316	976.226
297.411	636.001
301.504	422.99
305.595	325.16
309.684	426.476
313.771	716.06
317.856	1217.14
321.939	1760.5
326.02	2183.94
330.099	2321.63
334.176	2176.6
338.251	1759.85
342.323	1354.32
346.394	1410.54
350.463	1388.7
354.53	1578.85
358.594	1710.8
362.657	1903.71
366.718	2306.7
370.777	2580.14
374.833	2413.78
378.888	1847.58
382.941	1301.53
386.992	1020.61
391.04	1039.75
395.087	1333.99
399.132	1788.29
403.174	2532.59
407.215	2946.87
411.254	3441.13
415.29	3365.34
419.325	2609.51
423.358	1653.62
427.389	1037.64
431.417	441.584
435.444	272.42
439.469	97.145
443.492	79.744
447.512	212.208
451.531	260.527
455.548	350.695
459.563	239.701
463.576	186.538
467.587	235.2
471.596	31.68
475.603	19.935
479.608	81.203
483.611	116.213
487.612	58.298
491.611	9.816
495.608	284.736
499.603	485.353
503.596	1007.87
507.587	1301.44
511.577	1473.26
515.564	1588.95
519.549	1599.95
523.533	1385.97
527.514	1144.1
531.493	1170.75
535.471	1101.9
539.447	1378.57
543.42	1328.74
547.392	1520.43
551.362	1533.63
555.329	1347.34
559.295	1320.56
563.259	1161.3
567.221	1144.56
571.181	970.346
575.139	892.661
579.095	974.51
583.049	1128.9
587.002	1314.83
590.952	1639.32
594.9	1897.36
598.847	2444.97
602.792	2712.15
606.734	3058.92
610.675	3265.27
614.614	3271.22
618.55	3016.79
622.485	2601.97
626.418	2256.79
630.349	1821.26
634.279	1531.01
638.206	1292.92
642.131	900.561
646.055	639.466
649.976	412.335
653.896	40.095
657.814	306.945
661.729	517.664
665.643	637.211
669.555	549.996
673.465	459.036
677.373	32.677
681.28	261.911
685.184	1064.45
689.087	2641.97
692.987	4349.49
696.886	4357.05
700.783	2784.66
704.677	1272.33
708.57	850.104
712.462	737.986
716.351	1046
720.238	1634.18
724.124	2712.53
728.007	4291.08
731.889	6559.84
735.769	8738.84
739.647	11078.1
743.523	13647.6
747.397	15387.5
751.269	16577.6
755.139	15780.8
759.008	14089
762.875	11560.2
766.739	9281.77
770.602	7783.81
774.463	7546.51
778.323	7349.97
782.18	7030.13
786.035	6599.64
789.889	5886.05
793.741	5253.55
797.591	4712.54
801.439	4433.11
805.285	3895.01
809.129	3499.23
812.971	3054.81
816.812	3206.59
820.651	2847.54
824.488	2505.76
828.323	2190.9
832.156	2022.47
835.987	2121.33
839.817	2221.41
843.644	2362.58
847.47	2794.81
851.294	3128.01
855.116	3682.2
858.936	4357.37
862.755	4753.55
866.571	4940.72
870.386	4688.88
874.199	4908
878.01	4888.08
881.82	4319.11
885.627	4341.08
889.433	4173.99
893.236	3827.82
897.038	3682.59
900.838	3608.26
904.637	3864.85
908.433	4322.33
912.228	4880.69
916.021	5449.93
919.812	6710.04
923.601	7473.87
927.388	8122.44
931.174	7992.98
934.958	8060.25
938.739	7926.63
942.52	7776.49
946.298	8178.9
950.074	8498.8
953.849	8407.22
957.622	8525.53
961.393	7875.85
965.162	7437.58
968.93	6658.1
972.696	5660.45
976.459	4965.18
980.222	4528.06
983.982	4010.68
987.74	3471.85
991.497	3062.42
995.252	2657.76
999.005	2431.31
1002.76	2275.51
1006.51	2248.34
1010.25	2204.37
1014	2479.26
1017.74	2644.11
1021.49	2667.62
1025.23	2600.91
1028.96	2694.23
1032.7	2566.36
1036.44	2958.37
1040.17	3730.65
1043.9	4662.57
1047.63	4274.65
1051.36	3215.85
1055.09	1977.04
1058.81	1007.67
1062.54	480.28
1066.26	115.295
1069.97	84.078
1073.69	80.407
1077.41	138.173
1081.12	201.723
1084.84	266.734
1088.55	226.342
1092.25	159.114
1095.96	110.605
1099.67	133.448
1103.37	81.967
1107.07	109.174
1110.77	59.773
1114.47	214.965
1118.16	527.667
1121.86	305.396
1125.55	225.327
1129.24	22.158
1132.93	34.269
1136.62	37.82
1140.31	54.135
1143.99	130.615
1147.67	219.163
1151.35	246.934
1155.03	291.715
1158.71	377.143
1162.39	189.202
1166.06	280.447
1169.73	230.039
1173.4	280.334
1177.07	376.763
1180.74	353.487
1184.4	398.659
1188.07	449.05
1191.73	434.615
1195.39	485.286
1199.05	402.388
1202.7	494.534
1206.36	522.482
1210.01	587.193
1213.66	533.424
1217.31	558.695
1220.96	568.667
1224.6	553.048
1228.25	523.811
1231.89	468.3
1235.53	537.093
1239.17	498.561
1242.81	434.885
1246.44	350.039
1250.08	303.202
1253.71	314.916
1257.34	181.42
1260.97	93.357
1264.6	203.144
1268.22	285.245
1271.85	243.672
1275.47	206.314
1279.09	220.006
1282.71	127.818
1286.33	111.182
1289.94	74.596
1293.56	72.809
1297.17	93.755
1300.78	159.696
1304.39	191.132
1307.99	385.188
1311.6	211.71
1315.2	187.271
1318.8	123.785
1322.4	39.777
1326	45.672
1329.6	71.409
1333.19	126.511
1336.79	191.001
1340.38	135.056
1343.97	199.254
1347.56	123.259
1351.14	156.968
1354.73	90.305
1358.31	65.217
1361.89	88.465
1365.47	71.096
1369.05	124.054
1372.63	116.136
1376.2	148.075
1379.78	172.534
1383.35	126.907
1386.92	93.128
1390.49	128.529
1394.05	54.308
1397.62	18.274
1401.18	61.175
1404.74	42.124
1408.3	103.585
1411.86	195.59
1415.42	222.794
1418.97	88.185
1422.53	148.62
1426.08	49.905
1429.63	119.597
1433.18	70.866
1436.72	113.286
1440.27	114.474
1443.81	163.963
1447.36	182.317
1450.89	232.016
1454.43	373.979
1457.97	273.52
1461.51	212.651
1465.04	178.827
1468.57	154.046
1472.1	422.634
1475.63	174.193
1479.16	126.063
1482.68	118.148
1486.21	210.587
1489.73	323.081
1493.25	337.235
1496.77	252.044
1500.29	189.062
1503.8	214.024
1507.32	234.389
1510.83	189.086
1514.34	0.428
