Measurement: Raman, 514 nm, ccw, Raman Data Processed
Mineral: Vesuvianite
Rruff sample: R050233
Ideal chemistry: (Ca,Na)_19_(Al,Mg,Fe)_13_(SiO_4_)_10_(Si_2_O_7_)_4_(OH,F,O)_10_
Locality: Ludwig, Nevada, USA
Source: Marcus Origlieri
Description: Pale green euhedral single crystal
Measured chemistry: Ca_19.00_(Al_10.04_Mg_2.54_Fe^2+^_0.42_)_Σ=13_(Si_17.96_Al_0.04_)_Σ=18_O_68_((OH)_9.66_F_0.34_)_Σ=10_ ; Boron not analyzed.
Pin_id: L00161
Orientation: Laser parallel to -c* (0 0 -1). Fiducial mark perpendicular to laser is parallel to -a [-1 0 0]
Raman shift (cm-1)	intensity
114.254	0
118.424	20.921
122.592	59.519
126.758	32.416
130.922	111.306
135.083	308.395
139.243	458.201
143.401	382.475
147.557	163.492
151.711	59.85
155.863	64.715
160.013	384.443
164.161	756.512
168.308	1039.42
172.452	1431.85
176.594	1642.58
180.734	1720.54
184.872	1455.77
189.008	919.141
193.143	844.545
197.275	551.779
201.405	625.686
205.534	1138.92
209.66	1354.77
213.784	1565.41
217.907	1886.9
222.027	2084.29
226.146	1981.62
230.263	1529.9
234.377	1351.12
238.49	1067.39
242.601	897.414
246.709	1090.47
250.816	1758.77
254.921	2144.91
259.024	1697.2
263.125	1112.48
267.224	1087.61
271.321	1038.33
275.416	1365.65
279.51	1468.73
283.601	1949.48
287.69	2157.98
291.778	2019.96
295.863	2008.12
299.947	1836.8
304.029	1710.87
308.108	1525.07
312.186	1355.28
316.262	1388.56
320.336	1714.57
324.408	1738.38
328.478	1886.94
332.546	1777.23
336.612	1644.19
340.677	1386.79
344.739	1253.01
348.799	1480.82
352.858	1710.18
356.915	2065.06
360.969	2341.29
365.022	2500.9
369.073	2496.07
373.122	2295.53
377.169	2198.68
381.215	1804.3
385.258	1640.32
389.299	1814.74
393.339	1991.26
397.376	2701
401.412	3256.19
405.446	3866.64
409.478	4273.76
413.508	3916.32
417.536	3184.44
421.562	1879.06
425.586	1459.06
429.609	759.537
433.629	379.395
437.648	455.725
441.665	148.518
445.68	293.918
449.693	130.98
453.704	87.504
457.713	102.102
461.721	264.965
465.726	532.418
469.73	661.15
473.731	378.074
477.731	697.17
481.729	635.244
485.725	419.771
489.72	379.229
493.712	516.771
497.703	306.381
501.691	408.043
505.678	506.742
509.663	255.463
513.646	559.188
517.627	293.906
521.607	31.57
525.584	282.314
529.56	94.186
533.534	40.232
537.506	53.768
541.476	486.012
545.444	432.162
549.41	62.793
553.375	56.105
557.337	76.189
561.298	327.674
565.257	249.5
569.214	325.787
573.17	448.484
577.123	694.787
581.075	1093.68
585.024	1471.13
588.972	2153.07
592.918	2092.93
596.863	2275.4
600.805	2353.82
604.746	2552.53
608.685	2609.45
612.621	2422.8
616.557	2354.81
620.49	2418.06
624.421	2490.58
628.351	2599.17
632.279	3171.57
636.205	3591.38
640.129	3705.6
644.051	2956.34
647.972	2311.6
651.89	1848.38
655.807	1004.66
659.722	982.453
663.636	854.744
667.547	629.535
671.457	913.822
675.365	1127.6
679.271	1701.54
683.175	2698.53
687.077	3261.49
690.978	4846.63
694.877	5137.92
698.774	4267.97
702.669	2404.43
706.562	1841.52
710.454	710.562
714.344	567.826
718.232	244.848
722.118	378.348
726.002	249.043
729.885	321.719
733.766	71.41
737.645	23.805
741.522	90.83
745.397	101.176
749.271	31.752
753.143	129.625
757.013	147.463
760.881	208.406
764.748	397.383
768.613	334.299
772.476	242.287
776.337	140.811
780.196	332.111
784.054	376.631
787.91	543.777
791.764	525.578
795.616	455.072
799.467	802.262
803.316	1203.13
807.163	1043.7
811.008	954.967
814.851	1156.94
818.693	1620.63
822.533	1751.07
826.371	2049.28
830.208	2384.39
834.042	2712.57
837.875	3151.12
841.706	3717.18
845.536	4638.76
849.363	5787.46
853.189	6919.1
857.013	8024.79
860.836	8617.58
864.656	7948.53
868.475	7568.43
872.292	7120.96
876.108	6733.27
879.922	6917.68
883.733	6992.59
887.544	7123
891.352	6813.77
895.159	6394.07
898.964	6483.95
902.767	6501.89
906.568	6601.23
910.368	6592.18
914.166	7346.13
917.962	8030.34
921.757	8548.17
925.55	10202.3
929.341	11244.1
933.13	11288.5
936.918	11304.4
940.703	10124.1
944.488	9075.19
948.27	8010.97
952.051	7404.7
955.83	6769.05
959.607	6672.13
963.383	6233.4
967.156	5369.34
970.928	4493.4
974.699	4455.76
978.468	3987.66
982.234	3927.35
986	3048.93
989.763	2646.28
993.525	2322.08
997.285	2278.18
1001.04	1667.94
1004.8	1883.16
1008.55	1855.23
1012.31	2022.09
1016.06	2118.32
1019.81	1928.72
1023.56	2316.48
1027.31	2064.02
1031.05	1815.32
1034.79	2273.43
1038.53	2299.35
1042.27	2133.82
1046.01	1573.22
1049.75	1075.7
1053.48	1057.02
1057.22	752.812
1060.95	520.734
1064.68	559.852
1068.4	90.434
1072.13	393.879
1075.86	275.582
1079.58	211.703
1083.3	257.473
1087.02	201.152
1090.74	370.062
1094.45	358.816
1098.17	200.566
1101.88	639.801
1105.59	257.668
1109.3	493.531
1113.01	426.875
1116.71	420.586
1120.42	172.988
1124.12	428.762
1127.82	188.02
1131.52	156.855
1135.22	414.578
1138.91	288.621
1142.61	129.305
1146.3	20.789
1149.99	66.926
1153.68	307.602
1157.37	59.176
1161.06	151.984
1164.74	237.34
1168.42	187.48
1172.1	153.625
1175.78	395.203
1179.46	164.977
1183.14	291.668
1186.81	432.156
1190.48	423.5
1194.15	474.617
1197.83	386.984
1201.49	978.703
1205.16	588.23
1208.82	470.594
1212.49	568.398
1216.15	713.879
1219.81	630.828
1223.46	745.004
1227.12	248.723
1230.78	553.578
1234.43	397.809
1238.08	202.531
1241.73	492.383
1245.38	481.684
1249.03	598.051
1252.67	430.121
1256.31	49.754
1259.95	40.57
1263.6	381.383
1267.23	210.656
1270.87	383.461
1274.51	252.191
1278.14	164.254
1281.77	142.414
1285.4	255.07
1289.03	181.961
1292.66	209.637
1296.28	279.137
1299.91	288.453
1303.53	366.059
