Measurement: Raman, 514 nm, ccw, Raman Data Processed
Mineral: Vivianite
Rruff sample: R040185
Ideal chemistry: Fe^2+^_3_(PO_4_)_2_8H_2_O
Locality: Siglo XX mine, Llallagua, Bustillos, Potosi, Bolivia
Source: University of Arizona Mineral Museum
Description: Green acicular single crystal
Measured chemistry: (Fe_1.00_Mn_0.01_)_3_(P_0.97_Si_0.03_O_3.94_F_0.07_)_2_Â·8H_2_O
Pin_id: S00041
Orientation: Laser parallel to b* (0 1 0). Fiducial mark perpendicular to laser is parallel to -c [0 0 -1]
Raman shift (cm-1)	intensity
103.82	0
107.995	198.613
112.168	861.982
116.339	701.059
120.508	851.128
124.675	1294.61
128.84	1414.71
133.003	956.741
137.164	440.103
141.323	323.645
145.48	412.198
149.635	415.128
153.788	271.085
157.939	180.28
162.088	393.237
166.235	321.674
170.38	59.67
174.523	62.699
178.664	580.323
182.803	1602.54
186.94	2720.22
191.076	3139.63
195.209	3918.15
199.34	4106.16
203.47	2378.85
207.597	1139.31
211.722	732.583
215.846	862.685
219.967	1587.59
224.087	3011.58
228.204	3848.27
232.32	3659.5
236.434	3540.97
240.545	3029.37
244.655	1987.96
248.763	1164.73
252.869	885.214
256.973	832.578
261.075	862.099
265.175	1107.67
269.273	1433.37
273.369	1638.12
277.463	1438.04
281.556	1037.95
285.646	558.168
289.734	349.276
293.821	278.008
297.905	408.174
301.988	843.636
306.069	1089.29
310.147	874.025
314.224	499.781
318.299	297.5
322.372	125.14
326.443	52.668
330.512	64.053
334.579	92.26
338.645	42.209
342.708	119.856
346.769	155.192
350.829	21.207
354.887	8.896
358.942	83.732
362.996	109.771
367.048	142.322
371.098	103.464
375.146	56.147
379.192	2.73
383.236	13.157
387.279	64.116
391.319	26.721
395.358	91.96
399.394	67.528
403.429	10.769
407.462	2.868
411.493	36.504
415.522	16.577
419.549	114.069
423.575	184.99
427.598	65.421
431.619	178.521
435.639	289.409
439.657	367.055
443.673	587.426
447.687	1022.5
451.699	1362.25
455.709	1512.67
459.717	1332.76
463.724	897.531
467.728	681.961
471.731	561.027
475.732	428.725
479.731	455.066
483.728	458.033
487.723	556.624
491.716	582.156
495.708	668.481
499.697	832.541
503.685	1111.67
507.671	1344.75
511.655	1640.11
515.637	2094.82
519.617	2432.74
523.596	2505.59
527.572	2778.72
531.547	2952.71
535.52	3092.21
539.491	2790.1
543.46	2881.68
547.427	2608.35
551.393	2044.33
555.356	1779.18
559.318	1774.38
563.278	2268.69
567.236	3527.51
571.192	3753.14
575.147	2476.46
579.099	1355.28
583.05	897.252
586.999	663.906
590.946	541.637
594.891	539.975
598.834	498.312
602.776	286.387
606.715	444.201
610.653	501.76
614.589	629.066
618.523	738.16
622.456	797.354
626.386	1043.93
630.315	900.275
634.242	577.335
638.167	403.224
642.09	628.894
646.012	744.352
649.931	629.785
653.849	674.849
657.765	309.732
661.679	234.609
665.592	139.121
669.502	73.449
673.411	87.607
677.318	51.598
681.223	85.506
685.126	109.487
689.028	23.55
692.927	72.415
696.825	81.464
700.721	48.488
704.616	10.762
708.508	42.941
712.399	73.571
716.288	160.528
720.175	72.075
724.06	154.585
727.944	46.905
731.825	0.934
735.705	58.708
739.584	6.582
743.46	185.511
747.334	147.598
751.207	289.666
755.078	141.719
758.947	83.761
762.815	195.802
766.68	237.847
770.544	289.906
774.406	68.056
778.267	3.924
782.125	85.938
785.982	107.991
789.837	180.083
793.69	42.208
797.542	24.396
801.391	13.353
805.239	78.965
809.085	161.358
812.93	223.837
816.772	216.399
820.613	128.657
824.452	261.007
828.29	433.31
832.125	401.995
835.959	272.571
839.791	353.971
843.621	282.407
847.45	462.602
851.277	586.254
855.102	439.881
858.925	831.744
862.746	541.291
866.566	405.133
870.384	477.092
874.2	321.727
878.015	198.797
881.828	211.361
885.639	175.411
889.448	167.53
893.256	443.087
897.061	609.331
900.865	555.941
904.668	432.973
908.468	620.246
912.267	837.786
916.064	915.613
919.86	1113.71
923.653	1442.08
927.445	1776.29
931.236	2705.18
935.024	4074.32
938.811	6813.7
942.596	12732.4
946.379	24372.2
950.161	30832.3
953.94	21292.4
957.719	11122.9
961.495	6073.6
965.27	3564.51
969.043	2215.49
972.814	1536.92
976.583	1018.62
980.351	701.82
984.117	895.386
987.882	1096.6
991.644	991.962
995.405	845.568
999.165	939.291
1002.92	1303.37
1006.68	807.873
1010.43	842.553
1014.18	923.701
1017.93	1109.3
1021.68	1115.27
1025.43	1152.85
1029.18	1239.8
1032.92	1717.95
1036.66	2065.5
1040.4	3533.38
1044.14	5402
1047.88	9168.88
1051.62	13365.7
1055.35	11034.8
1059.08	6454.17
1062.81	3438.19
1066.54	1857.92
1070.27	1410.53
1073.99	950.633
1077.72	651.613
1081.44	801.9
1085.16	880.719
1088.88	729.348
1092.59	767.426
1096.31	294.998
1100.02	192.252
1103.73	138.848
1107.44	145.242
1111.15	231.795
1114.86	270.258
1118.57	261.576
1122.27	173.348
1125.97	54.568
1129.67	52.189
1133.37	79.35
1137.07	113.891
1140.76	137.449
1144.45	51.406
1148.15	55.721
1151.84	30.4
1155.53	125.195
1159.21	100.396
1162.9	14.18
1166.58	98.883
1170.26	343.811
1173.94	339.064
1177.62	314.809
1181.3	211.197
1184.97	158.41
1188.65	86.484
1192.32	15.148
1195.99	31.309
1199.66	351.07
1203.33	368.459
1206.99	316.492
1210.65	146.639
1214.32	23.498
1217.98	175.926
1221.64	148.93
1225.29	222.936
1228.95	229.186
1232.6	634.439
1236.26	385.211
1239.91	329.67
1243.56	47.883
1247.2	102.42
1250.85	38.07
1254.49	76.646
1258.13	0
