Measurement: Raman, 514 nm, ccw, Raman Data Processed
Mineral: Vivianite
Rruff sample: R040185
Ideal chemistry: Fe^2+^_3_(PO_4_)_2_8H_2_O
Locality: Siglo XX mine, Llallagua, Bustillos, Potosi, Bolivia
Source: University of Arizona Mineral Museum
Description: Green acicular single crystal
Measured chemistry: (Fe_1.00_Mn_0.01_)_3_(P_0.97_Si_0.03_O_3.94_F_0.07_)_2_Â·8H_2_O
Pin_id: S00041
Orientation: Laser parallel to b* (0 1 0). Fiducial mark perpendicular to laser is parallel to -c [0 0 -1]
Raman shift (cm-1)	intensity
107.995	0
112.168	6.129
116.339	136.274
120.508	278.919
124.675	627.68
128.84	1257.67
133.003	795.537
137.164	398.888
141.323	674.966
145.48	1421.6
149.635	1437.71
153.788	878.864
157.939	1168.69
162.088	2456.41
166.235	2932.65
170.38	1672.16
174.523	891.637
178.664	653.549
182.803	909.276
186.94	1785.77
191.076	3655.24
195.209	7147.88
199.34	8447.77
203.47	5212.84
207.597	2394.97
211.722	1224.66
215.846	1087.78
219.967	1731.87
224.087	3310.47
228.204	4336.7
232.32	3932.47
236.434	3655.47
240.545	3130.32
244.655	1966.52
248.763	1099.7
252.869	638.354
256.973	428.166
261.075	347.708
265.175	303.206
269.273	353.638
273.369	433.588
277.463	220.356
281.556	73.358
285.646	16.074
289.734	79.221
293.821	55.047
297.905	35.38
301.988	199.975
306.069	263.62
310.147	275.215
314.224	202.667
318.299	164.042
322.372	14.505
326.443	204.201
330.512	243.19
334.579	481.319
338.645	678.53
342.708	1087.15
346.769	1031.68
350.829	661.693
354.887	269.208
358.942	123.22
362.996	65.411
367.048	7.216
371.098	107.715
375.146	96.87
379.192	87.706
383.236	58.27
387.279	88.454
391.319	19.677
395.358	111.497
399.394	102.8
403.429	88.086
407.462	109.243
411.493	73.118
415.522	62.226
419.549	145.658
423.575	196.459
427.598	186.624
431.619	344.294
435.639	494.578
439.657	680.527
443.673	1068.09
447.687	1739.21
451.699	2452.66
455.709	2711.77
459.717	2170
463.724	1433.32
467.728	978.181
471.731	538.568
475.732	394.482
479.731	324.923
483.728	217.339
487.723	236.684
491.716	283.644
495.708	173.103
499.697	247.051
503.685	429.517
507.671	540.53
511.655	726.011
515.637	882.773
519.617	1021.45
523.596	1172.84
527.572	1230.36
531.547	1475.26
535.52	1492.9
539.491	1475.3
543.46	1515.68
547.427	1427.01
551.393	1039.57
555.356	987.047
559.318	784.152
563.278	738.952
567.236	982.376
571.192	1202.85
575.147	908.753
579.099	564.183
583.05	416.195
586.999	464.225
590.946	480.762
594.891	455.824
598.834	454.816
602.776	382.566
606.715	523.088
610.653	654.476
614.589	580.823
618.523	727.041
622.456	913.062
626.386	1228.89
630.315	904.529
634.242	579.995
638.167	455.021
642.09	639.131
646.012	753.196
649.931	776.522
653.849	639.24
657.765	352.785
661.679	277.154
665.592	131.558
669.502	105.835
673.411	99.99
677.318	56.646
681.223	78.186
685.126	72.471
689.028	13.17
692.927	78.766
696.825	104.301
700.721	69.72
704.616	55.017
708.508	59.529
712.399	126.022
716.288	101.751
720.175	12.383
724.06	66.393
727.944	100.478
731.825	104.728
735.705	10.856
739.584	63.672
743.46	238.32
747.334	283.075
751.207	347.935
755.078	162.9
758.947	217.982
762.815	393.188
766.68	308.522
770.544	323.99
774.406	189.602
778.267	225.361
782.125	281.273
785.982	227.348
789.837	333.592
793.69	350.013
797.542	376.624
801.391	363.459
805.239	650.537
809.085	847.85
812.93	895.396
816.772	1063.28
820.613	1051.46
824.452	1417.92
828.29	1696.03
832.125	1714.98
835.959	1594.19
839.791	1661.16
843.621	1782.04
847.45	1760.66
851.277	1810.87
855.102	1724.9
858.925	1972.09
862.746	1671.75
866.566	1484.42
870.384	1467.84
874.2	1189.2
878.015	1087.63
881.828	989.282
885.639	1012.35
889.448	1115.5
893.256	1269.22
897.061	1393.27
900.865	1357.73
904.668	1202.54
908.468	1377.69
912.267	1643.19
916.064	1919.03
919.86	2015.19
923.653	2441.67
927.445	2748.44
931.236	3845.52
935.024	5572.91
938.811	8770.64
942.596	15318.7
946.379	27557.1
950.161	33295.8
953.94	22017.2
957.719	10738.1
961.495	5698.21
965.27	3097.34
969.043	1772.65
972.814	1234.97
976.583	706.176
980.351	431.47
984.117	633.406
987.882	736.838
991.644	499.529
995.405	284.09
999.165	507.881
1002.92	1116.62
1006.68	321.277
1010.43	186.373
1014.18	182.018
1017.93	318.048
1021.68	304.619
1025.43	301.191
1029.18	188.07
1032.92	205.208
1036.66	322.745
1040.4	520.346
1044.14	708.272
1047.88	1293.15
1051.62	2262.19
1055.35	2091.09
1059.08	1392.15
1062.81	921.384
1066.54	489.591
1070.27	327.207
1073.99	144.113
1077.72	210.133
1081.44	368.739
1085.16	647.908
1088.88	487.642
1092.59	357.853
1096.31	88.55
1100.02	70.531
1103.73	59.209
1107.44	17.431
1111.15	124.842
1114.86	157.529
1118.57	170.427
1122.27	113.821
1125.97	82.256
1129.67	32.101
1133.37	23.111
1137.07	92.077
1140.76	187.436
1144.45	13.129
1148.15	49.313
1151.84	146.217
1155.53	43.916
1159.21	82.324
1162.9	266.961
1166.58	370.885
1170.26	466.609
1173.94	347.173
1177.62	343.49
1181.3	196.688
1184.97	247.537
1188.65	124.438
1192.32	206.732
1195.99	67.312
1199.66	338.573
1203.33	462.203
1206.99	385.924
1210.65	214.886
1214.32	136.651
1217.98	38.877
1221.64	0.031
