Measurement: Raman, 514 nm, ccw, Raman Data Processed
Mineral: Vivianite
Rruff sample: R040185
Ideal chemistry: Fe^2+^_3_(PO_4_)_2_8H_2_O
Locality: Siglo XX mine, Llallagua, Bustillos, Potosi, Bolivia
Source: University of Arizona Mineral Museum
Description: Green acicular single crystal
Measured chemistry: (Fe_1.00_Mn_0.01_)_3_(P_0.97_Si_0.03_O_3.94_F_0.07_)_2_Â·8H_2_O
Pin_id: L00515
Orientation: Laser parallel to -a* (-1 0 0). Fiducial mark perpendicular to laser is parallel to b [0 1 0]
Raman shift (cm-1)	intensity
83.128	0
87.329	19.296
91.527	1.073
95.723	22.461
99.917	85.46
104.109	141.459
108.298	251.015
112.486	485.472
116.672	647.628
120.855	782.664
125.036	1138.35
129.216	1542.34
133.393	1399.99
137.568	1018.94
141.741	799.926
145.911	817.774
150.08	958.354
154.247	1054.56
158.411	1113.87
162.574	1194.5
166.734	1137.38
170.893	1068.97
175.049	932.235
179.203	734.384
183.355	771.51
187.505	885.666
191.653	993.882
195.799	1119.17
199.943	1042.55
204.084	900.003
208.224	899.54
212.362	968.154
216.497	1277.84
220.631	1868.59
224.762	2655.41
228.891	2924.19
233.018	2029.86
237.144	1169.22
241.267	687.459
245.388	532.568
249.507	466.039
253.624	429.113
257.739	394.708
261.852	379.445
265.962	464.567
270.071	560.586
274.178	526.691
278.283	626.549
282.385	696.677
286.486	793.028
290.584	803.563
294.681	748.244
298.775	687.043
302.868	584.939
306.958	567.914
311.047	512.255
315.133	446.047
319.217	367.182
323.299	344.351
327.38	344.529
331.458	348.746
335.534	394.959
339.608	439.173
343.681	557.391
347.751	612.652
351.819	484.916
355.885	307.169
359.949	146.421
364.011	30.681
368.071	12.09
372.129	7.932
376.185	41.88
380.239	33.968
384.291	33.21
388.341	40.473
392.389	13.259
396.435	28.241
400.479	0.376
404.521	1.366
408.561	26.645
412.599	68.515
416.636	106.483
420.67	150.421
424.702	116.352
428.732	297.97
432.76	289.047
436.786	539.073
440.81	495.189
444.832	379.446
448.852	565.107
452.87	779.706
456.887	942.239
460.901	1020.7
464.913	914.1
468.923	824.422
472.931	647.668
476.938	520.837
480.942	420.196
484.944	396.671
488.945	334.361
492.943	326.153
496.94	314.136
500.934	368.162
504.927	410.646
508.917	436.377
512.906	489.124
516.892	534.673
520.877	601.617
524.86	660.33
528.841	751.519
532.82	788.295
536.796	847.45
540.771	859.562
544.744	853.031
548.715	786.049
552.684	695.201
556.652	637.164
560.617	595.388
564.58	562.178
568.541	559.061
572.501	554.338
576.458	528.836
580.414	531.276
584.367	489.036
588.319	430.327
592.268	475.824
596.216	397.551
600.162	357.216
604.106	309.232
608.048	239.367
611.988	201.865
615.926	147.295
619.862	90.904
623.797	77.221
627.729	36.483
631.659	38.692
635.588	17.848
639.515	13.946
643.439	19.981
647.362	27.082
651.283	14.682
655.202	1.649
659.119	4.073
663.034	18.628
666.947	6.651
670.859	1.844
674.768	32.037
678.676	21.04
682.581	11.856
686.485	5.725
690.387	6.601
694.287	35.521
698.185	12.505
702.081	12.57
705.975	22.744
709.868	13.02
713.758	7.386
717.647	27.821
721.533	21.298
725.418	18.798
729.301	33.289
733.182	28.759
737.061	14.209
740.939	28.351
744.814	19.086
748.688	23.522
752.559	12.958
756.429	18.396
760.297	20.837
764.163	0.578
768.027	7.735
771.89	17.196
775.75	18.661
779.609	25.135
783.465	24.622
787.32	33.965
791.173	69.754
795.024	47.764
798.873	108.963
802.721	84.457
806.566	99.395
810.41	117.191
814.252	101.398
818.092	146.345
821.93	171.911
825.766	178.69
829.601	183.21
833.433	149.105
837.264	216.041
841.093	124.078
844.92	143.776
848.745	159.17
852.568	158.049
856.39	144.314
860.209	103.644
864.027	104.203
867.843	53.476
871.657	46.973
875.47	81.532
879.28	35.068
883.089	21.552
886.896	56.806
890.701	18.114
894.504	21.975
898.305	40.827
902.105	48.767
905.902	75.764
909.698	54.817
913.492	104.926
917.285	120.081
921.075	119.302
924.864	121.579
928.65	166.676
932.435	206.066
936.218	305.512
940	481.014
943.779	803.572
947.557	1432.19
951.333	1723.87
955.107	1148.66
958.879	594.545
962.65	347.979
966.418	251.18
970.185	156.715
973.95	142.981
977.714	165.322
981.475	178.243
985.235	201.284
988.993	289.857
992.749	322.738
996.503	344.629
1000.26	406.428
1004.01	607.773
1007.75	888.696
1011.5	1350.66
1015.25	1654.58
1018.99	1615.27
1022.73	1259.17
1026.47	815.896
1030.21	559.165
1033.95	462.49
1037.68	437.214
1041.41	415.688
1045.15	417.196
1048.88	371.874
1052.6	414.447
1056.33	362.059
1060.05	399.633
1063.78	365.221
1067.5	367.829
1071.21	455.412
1074.93	467.011
1078.65	440.599
1082.36	345.204
1086.07	248.813
1089.78	164.426
1093.49	130.044
1097.2	96.67
1100.9	60.438
1104.6	28.085
1108.3	7.746
1112	10.58
1115.7	10.743
1119.4	26.926
1123.09	134.543
1126.78	18.35
1130.47	0.386
1134.16	33.13
1137.85	3.164
1141.54	0.5
1145.22	33.848
1148.9	27.233
1152.58	45.641
1156.26	18.907
1159.94	22.583
1163.61	15.114
1167.28	16.69
1170.95	2.315
1174.62	17.994
1178.29	30.733
1181.96	44.539
1185.62	15.418
1189.29	36.373
1192.95	11.062
1196.61	31.698
1200.26	30.737
1203.92	35.835
1207.57	36.311
1211.23	48.144
1214.88	20.398
1218.53	16.324
1222.17	36.52
1225.82	38.054
1229.46	54.613
1233.11	61.282
1236.74	30.157
1240.38	26.158
1244.02	29.279
1247.66	3.682
1251.29	32.331
1254.92	23.286
1258.55	59.667
1262.18	27.487
1265.81	20.26
1269.43	14.81
