Measurement: Raman, 514 nm, ccw, Raman Data Processed
Mineral: Vivianite
Rruff sample: R040185
Ideal chemistry: Fe^2+^_3_(PO_4_)_2_8H_2_O
Locality: Siglo XX mine, Llallagua, Bustillos, Potosi, Bolivia
Source: University of Arizona Mineral Museum
Description: Green acicular single crystal
Measured chemistry: (Fe_1.00_Mn_0.01_)_3_(P_0.97_Si_0.03_O_3.94_F_0.07_)_2_Â·8H_2_O
Pin_id: M00228
Orientation: Laser parallel to (-1 0 -1). Fiducial mark perpendicular to laser is parallel to b [0 1 0]
Raman shift (cm-1)	intensity
101.036	0
105.212	65.86
109.387	38.707
113.559	119.199
117.729	171.278
121.897	668.313
126.063	1330.64
130.228	831.115
134.39	113.769
138.55	54.871
142.709	229.461
146.865	292.73
151.019	202.288
155.171	111.93
159.322	70.632
163.47	3.422
167.617	33.441
171.761	184.399
175.904	562.956
180.044	1697.29
184.183	3500.35
188.319	5156.51
192.454	7453.05
196.586	8480.09
200.717	5733.69
204.846	2828.88
208.972	1736.7
213.097	1621.51
217.22	2482.49
221.341	4578.44
225.46	6246.3
229.577	5758.39
233.692	4922.25
237.805	4481.89
241.916	2959.68
246.025	1847.72
250.132	1359.23
254.237	1221.97
258.34	1251.9
262.442	1412.45
266.541	1703.28
270.639	2026.18
274.734	1990.81
278.828	1416.76
282.919	849.815
287.009	479.902
291.097	366.96
295.183	414.951
299.266	597.834
303.348	822.587
307.428	722.194
311.507	456.639
315.583	240.914
319.657	164.016
323.729	110.941
327.8	67.645
331.868	18.862
335.935	2.069
339.999	24.033
344.062	0.513
348.123	31.283
352.182	36.436
356.239	37.956
360.294	48.83
364.347	22.058
368.398	38.615
372.448	44.523
376.495	3.755
380.54	8.263
384.584	23.894
388.626	35.578
392.666	27.723
396.704	75.341
400.74	79.453
404.774	78.207
408.806	158.764
412.836	149.189
416.865	231.506
420.891	289.739
424.916	302.899
428.939	304.984
432.959	315.961
436.978	375.82
440.996	452.555
445.011	625.162
449.024	883.643
453.036	1045
457.045	997.227
461.053	712.333
465.059	551.317
469.063	481.181
473.065	466.93
477.065	514.564
481.063	549.089
485.06	640.26
489.054	732.595
493.047	949.039
497.038	1107.78
501.027	1403.98
505.014	1708.74
508.999	2156.98
512.982	2600.16
516.964	3035.4
520.944	3487.57
524.921	3849.52
528.897	4107.85
532.871	4269.66
536.844	4126.99
540.814	3994.22
544.783	3429.51
548.749	2737.08
552.714	2070.68
556.677	1624.81
560.638	1432.3
564.597	1639.86
568.555	1838.06
572.511	1218.4
576.464	685.845
580.416	374.156
584.366	242.576
588.315	148.025
592.261	109.504
596.206	84.017
600.148	120.564
604.089	198.147
608.028	236.768
611.965	321.43
615.901	353.133
619.834	425.88
623.766	446.673
627.696	327.512
631.624	336.401
635.551	283.34
639.475	260.37
643.398	253.417
647.318	230.117
651.237	215.302
655.155	256.661
659.07	222.541
662.984	236.241
666.895	224.706
670.805	296.579
674.713	298.846
678.62	351.28
682.524	320.055
686.427	332.333
690.328	331.271
694.227	359.981
698.124	338.197
702.02	374.547
705.913	288.053
709.805	265.55
713.695	224.964
717.584	218.571
721.47	216.919
725.355	164.451
729.238	172.014
733.119	140.606
736.998	135.228
740.876	152.878
744.752	131.407
748.626	113.261
752.498	100.994
756.368	118.753
760.237	105.539
764.104	92.349
767.969	87.185
771.832	79.046
775.693	49.93
779.553	76.838
783.411	53.768
787.267	17.721
791.122	4.695
794.974	19.688
798.825	27.701
802.674	25.727
806.522	17.24
810.367	25.253
814.211	41.364
818.053	49.585
821.893	1.057
825.732	25.398
829.568	50.984
833.403	47.717
837.236	1.421
841.068	17.542
844.898	31.641
848.726	32.862
852.552	9.832
856.376	6.529
860.199	5.052
864.02	59.62
867.839	60.185
871.656	67.748
875.472	103.311
879.286	112.874
883.098	181.438
886.909	169.005
890.717	253.573
894.524	294.146
898.33	375.723
902.133	444.996
905.935	542.893
909.735	665.49
913.533	797.099
917.33	1028.71
921.124	1280.34
924.918	1787.97
928.709	2354.62
932.499	3639.28
936.286	5617.95
940.073	10028.6
943.857	19206.3
947.64	27904
951.421	20271.8
955.2	10439
958.978	5483.85
962.753	3235.14
966.527	2137.48
970.3	1495.68
974.071	1172.46
977.84	1028.32
981.607	1127.54
985.372	1252.64
989.136	1366.33
992.898	1317.84
996.659	1196.15
1000.42	1105.67
1004.17	991.125
1007.93	883.695
1011.68	860.501
1015.43	843.955
1019.18	821.506
1022.93	886.605
1026.68	930.833
1030.42	1120.67
1034.17	1397.57
1037.91	1940.55
1041.65	3013.64
1045.39	5089.77
1049.12	7647.96
1052.86	7252.27
1056.59	4297.77
1060.33	2336.61
1064.06	1405.09
1067.78	941.617
1071.51	679.534
1075.23	438.315
1078.96	369.005
1082.68	260.035
1086.4	286.035
1090.12	239.572
1093.83	177.533
1097.55	140.025
1101.26	187.606
1104.97	113.269
1108.68	137.737
1112.39	51.93
1116.1	81.628
1119.8	43.079
1123.5	40.6
1127.2	20.622
1130.9	32.6
1134.6	21.558
1138.3	43.779
1141.99	52.88
1145.69	61.118
1149.38	69.962
1153.07	64.417
1156.76	53.767
1160.44	24.246
1164.13	23.994
1167.81	44.106
1171.49	28.886
1175.17	10.02
1178.85	20.708
1182.52	13.656
1186.2	17.465
1189.87	1.315
1193.54	23.566
1197.21	10.369
1200.88	0.16
1204.55	3.99
1208.21	29.766
1211.88	34.259
1215.54	38.781
1219.2	21.201
1222.86	22.581
1226.51	19.862
1230.17	38.118
1233.82	13.637
1237.47	29.822
1241.12	0.62
1244.77	16.944
1248.42	11.91
1252.06	3.246
1255.71	22.836
1259.35	24.684
1262.99	40.568
1266.63	33.38
1270.26	0.844
1273.9	14.933
1277.53	15.785
1281.16	12.578
1284.8	60.395
1288.42	6.272
1292.05	23.939
1295.68	16.991
1299.3	8.169
1302.92	1.579
1306.55	4.757
1310.16	15.819
1313.78	31.305
1317.4	15.292
1321.01	4.986
1324.62	24.142
1328.24	27.139
1331.85	16.029
1335.45	18.251
1339.06	0.381
1342.66	6.096
1346.27	77.259
1349.87	74.34
1353.47	74.214
1357.07	59.337
1360.66	62.378
1364.26	43.01
1367.85	61.877
1371.44	61.726
1375.04	57.305
1378.62	45.207
1382.21	89.801
1385.8	86.031
1389.38	61.58
1392.96	100.253
1396.54	73.285
1400.12	72.573
1403.7	62.292
1407.28	102.572
1410.85	56.925
1414.42	50.726
1417.99	79.72
1421.56	70.552
1425.13	82.991
1428.7	90.758
1432.26	41.554
1435.83	78.34
1439.39	91.643
1442.95	67.939
1446.51	58.803
1450.06	55.846
1453.62	47.798
1457.17	69.138
1460.73	74.128
1464.28	101.438
1467.83	106.299
1471.37	94.924
1474.92	76.231
1478.46	64.072
1482.01	76.295
1485.55	79.247
1489.09	50.626
1492.63	39.873
1496.16	59.049
1499.7	94.899
1503.23	39.269
1506.76	94.308
1510.29	45.78
1513.82	71.717
1517.35	68.57
1520.88	5.307
1524.4	88.713
1527.92	1.56
