Measurement: Raman, 514 nm, ccw, Raman Data Processed
Mineral: Vivianite
Rruff sample: R040185
Ideal chemistry: Fe^2+^_3_(PO_4_)_2_8H_2_O
Locality: Siglo XX mine, Llallagua, Bustillos, Potosi, Bolivia
Source: University of Arizona Mineral Museum
Description: Green acicular single crystal
Measured chemistry: (Fe_1.00_Mn_0.01_)_3_(P_0.97_Si_0.03_O_3.94_F_0.07_)_2_Â·8H_2_O
Pin_id: M00443
Orientation: Laser parallel to -c* (0 0 -1). Fiducial mark perpendicular to laser is parallel to a [1 0 0]
Raman shift (cm-1)	intensity
98.251	0
102.428	1.824
106.604	66.775
110.777	113.541
114.949	229.758
119.119	296.016
123.286	1145.29
127.452	2300.03
131.615	382.107
135.777	307.519
139.937	1043.35
144.094	2097.73
148.25	2183.33
152.403	1301.33
156.555	1225.21
160.705	3221.7
164.853	3567.98
168.998	2001.39
173.142	1167.63
177.284	1121.46
181.424	1620.36
185.562	3186.84
189.698	6908.34
193.831	15126.1
197.963	17418.5
202.093	8078.14
206.221	3569.3
210.347	2192.26
214.472	1937.55
218.594	3076.12
222.714	6498.23
226.832	8232.18
230.948	5653.31
235.063	4932.02
239.175	4362.03
243.286	2350.92
247.394	1215.68
251.501	724.902
255.605	493.474
259.708	359.625
263.808	252.204
267.907	229.567
272.004	340.971
276.099	195.644
280.192	35.154
284.283	3.142
288.372	74.535
292.459	78.752
296.544	64.622
300.627	37.967
304.709	58.902
308.788	22.524
312.865	19.421
316.941	28.165
321.015	107.814
325.086	152.917
329.156	205.651
333.224	380.587
337.29	699.333
341.354	1009.79
345.416	899.415
349.476	533.479
353.534	297.973
357.591	135.543
361.645	10.698
365.698	20.684
369.748	0.176
373.797	23.916
377.844	2.375
381.889	28.604
385.932	100.061
389.973	29.027
394.012	66.267
398.049	70.973
402.084	43.795
406.118	87.988
410.15	117.602
414.179	146.718
418.207	216.362
422.233	213.618
426.257	223.515
430.279	141.932
434.299	240.94
438.318	224.268
442.334	165.275
446.349	279.408
450.361	376.827
454.372	319.72
458.381	196.95
462.388	62.842
466.394	36.498
470.397	69.007
474.398	13.304
478.398	4.596
482.396	27.388
486.391	0.267
490.385	55.908
494.377	41.5
498.368	21.688
502.356	76.547
506.342	85.099
510.327	150.353
514.31	165.01
518.291	244.995
522.27	257.089
526.247	235.079
530.222	266.43
534.196	284.352
538.167	334.437
542.137	164.16
546.105	67.846
550.071	14.615
554.035	42.815
557.998	45.634
561.958	74.601
565.917	319.987
569.874	450.23
573.829	320.773
577.782	165.855
581.733	56.067
585.683	135.684
589.63	136.493
593.576	203.672
597.52	266.877
601.462	324.825
605.402	408.808
609.341	609.946
613.277	660.354
617.212	758.048
621.145	675.406
625.076	684.392
629.006	619.43
632.933	492.442
636.859	448.898
640.783	352.204
644.705	462.312
648.625	476.874
652.543	364.214
656.46	283.09
660.375	243.058
664.288	296.19
668.199	428.432
672.108	283.79
676.016	347.296
679.921	203.989
683.825	296.917
687.727	331.134
691.628	371.665
695.526	334.507
699.423	279.605
703.318	287.961
707.211	300.556
711.102	200.539
714.992	186.561
718.879	167.853
722.765	298.391
726.649	322.149
730.532	347.147
734.412	274.397
738.291	259.921
742.168	274.662
746.043	423.618
749.916	411.794
753.788	423.188
757.658	212.803
761.526	299.636
765.392	215.679
769.257	265.027
773.119	205.618
776.98	13.444
780.839	17.522
784.697	12.149
788.552	50.563
792.406	9.148
796.258	88.021
800.108	86.009
803.957	2.207
807.804	51.667
811.649	163.379
815.492	227.316
819.333	253.462
823.173	401.813
827.011	641.372
830.847	810.147
834.681	834.129
838.514	761.312
842.345	739.713
846.174	718.311
850.001	741.1
853.827	806.079
857.651	730.797
861.473	677.15
865.293	578.723
869.112	640.496
872.928	623.446
876.744	718.571
880.557	718.868
884.369	585.483
888.178	678.908
891.987	821.741
895.793	929.706
899.598	1095.83
903.401	1220.1
907.202	1216.54
911.001	1416.12
914.799	1978.84
918.595	2377.45
922.389	2986.38
926.182	3874.51
929.972	5052.72
933.761	7580.88
937.549	12369.6
941.334	22957.2
945.118	40508.1
948.9	42880.7
952.681	22626
956.459	10463.3
960.236	5623
964.012	3307.18
967.785	2165.97
971.557	1386.36
975.327	922.836
979.095	655.792
982.862	554.28
986.627	555.97
990.39	335.753
994.152	329.073
997.912	311.979
1001.67	118.942
1005.43	95.987
1009.18	93.321
1012.93	149.718
1016.68	132.203
1020.43	179.519
1024.18	169.942
1027.93	47.194
1031.67	14.284
1035.42	4.194
1039.16	66.602
1042.9	59.937
1046.63	216.746
1050.37	315.223
1054.11	240.251
1057.84	195.757
1061.57	120.251
1065.3	90.729
1069.03	109.272
1072.75	38.5
1076.47	23.331
1080.2	14.256
1083.92	20.266
1087.64	39.366
1091.36	16.415
1095.07	154.396
1098.79	84.409
1102.5	8.902
1106.21	23.309
1109.92	20.189
1113.62	14.871
1117.33	76.218
1121.04	176.575
1124.74	68.753
1128.44	9.878
1132.14	104.87
1135.83	42.783
1139.53	25.64
1143.22	144.555
1146.92	126.884
1150.61	139.818
1154.3	178.084
1157.98	102.2
1161.67	17.183
1165.35	105.739
1169.04	76.726
1172.72	191.893
1176.4	233.125
1180.07	221.82
1183.75	191.389
1187.42	205.329
1191.1	58.658
1194.77	115.612
1198.44	139.306
1202.1	198.9
1205.77	222.744
1209.43	368.167
1213.1	240.229
1216.76	232.272
1220.42	153.967
1224.07	792.687
1227.73	834.335
1231.38	662.855
1235.04	329.732
1238.69	297.682
1242.34	242.897
1245.99	173.66
1249.63	147.53
1253.28	119.965
1256.92	68.715
1260.56	147.492
1264.2	216.977
1267.84	196.489
1271.48	222.71
1275.11	180.955
1278.74	198.36
1282.38	124.935
1286.01	14.786
1289.63	85.806
1293.26	135.789
1296.89	129.436
1300.51	156.83
1304.13	144.858
1307.75	126.614
1311.37	35.312
1314.99	7.085
1318.6	71.621
1322.22	10.831
1325.83	48.949
1329.44	91.885
1333.05	90.706
1336.66	98.97
1340.26	61.378
1343.87	44.593
1347.47	62.107
1351.07	574.02
1354.67	43.813
1358.27	141.484
1361.86	41.958
1365.46	101.671
1369.05	219.23
1372.64	181.679
1376.23	216.236
1379.82	90.554
1383.41	112.963
1386.99	78.534
1390.57	67.47
1394.16	122.76
1397.74	66.328
1401.32	105.916
1404.89	182.467
1408.47	229.931
1412.04	261.498
1415.61	269.87
1419.18	124.86
1422.75	124.19
1426.32	31.351
1429.89	13.681
1433.45	201.562
1437.01	219.572
1440.58	157.109
1444.13	388.014
1447.69	276.849
1451.25	347.08
1454.81	311.058
1458.36	175.91
1461.91	198.581
1465.46	50.539
1469.01	160.178
1472.56	117.278
1476.1	128.361
1479.64	202.436
1483.19	195.992
1486.73	220.077
1490.27	240.876
1493.81	217.758
1497.34	177.87
1500.88	181.913
1504.41	56.598
1507.94	56.009
1511.47	63.432
1515	16.731
1518.53	65.338
1522.05	167.22
1525.57	122.531
1529.1	176.292
1532.62	0
