Measurement: Raman, 514 nm, ccw, Raman Data Processed
Mineral: Vivianite
Rruff sample: R040185
Ideal chemistry: Fe^2+^_3_(PO_4_)_2_8H_2_O
Locality: Siglo XX mine, Llallagua, Bustillos, Potosi, Bolivia
Source: University of Arizona Mineral Museum
Description: Green acicular single crystal
Measured chemistry: (Fe_1.00_Mn_0.01_)_3_(P_0.97_Si_0.03_O_3.94_F_0.07_)_2_Â·8H_2_O
Pin_id: M00443
Orientation: Laser parallel to -c* (0 0 -1). Fiducial mark perpendicular to laser is parallel to a [1 0 0]
Raman shift (cm-1)	intensity
107.995	0
112.168	213.311
116.339	249.208
120.508	647.437
124.675	2661.49
128.84	2533.21
133.003	783.889
137.164	1809.45
141.323	3272.8
145.48	6291.42
149.635	12471.8
153.788	7741.01
157.939	3949.94
162.088	4536.97
166.235	4701.26
170.38	4302.27
174.523	1935.54
178.664	822.887
182.803	1902.47
186.94	4160.31
191.076	7797.09
195.209	13922.7
199.34	13403.6
203.47	7782.46
207.597	3745.76
211.722	2844.08
215.846	4173.26
219.967	8203.61
224.087	13392.8
228.204	11463.6
232.32	6557.16
236.434	4598.19
240.545	2736.49
244.655	1044.99
248.763	475.297
252.869	109.609
256.973	53.395
261.075	45.917
265.175	263.936
269.273	486.544
273.369	524.401
277.463	325.032
281.556	137.034
285.646	0.072
289.734	119.897
293.821	94.53
297.905	19.237
301.988	5.781
306.069	115.49
310.147	134.279
314.224	130.897
318.299	102.963
322.372	93.186
326.443	112.698
330.512	338.101
334.579	610.374
338.645	1199.29
342.708	1544.93
346.769	1212.71
350.829	650.225
354.887	289.375
358.942	172.235
362.996	76.236
367.048	143.57
371.098	107.548
375.146	288.06
379.192	297.07
383.236	324.521
387.279	487.228
391.319	613.55
395.358	791.38
399.394	1004.4
403.429	1229.54
407.462	1671.05
411.493	2307.5
415.522	3114.64
419.549	4115.91
423.575	4190.08
427.598	3313.5
431.619	2231.87
435.639	1699.66
439.657	1696.55
443.673	1837.22
447.687	2284.48
451.699	2585.68
455.709	2341.08
459.717	2078.93
463.724	1637.08
467.728	1276.83
471.731	1078.66
475.732	895.699
479.731	847.918
483.728	754.786
487.723	705.53
491.716	840.408
495.708	829.164
499.697	831.462
503.685	844.828
507.671	936.786
511.655	1218.15
515.637	1472.48
519.617	1684.17
523.596	2028.42
527.572	2447.52
531.547	3174.08
535.52	3564.61
539.491	3891.41
543.46	3958.89
547.427	3701.62
551.393	3220.01
555.356	2797.31
559.318	2470.11
563.278	2657.49
567.236	2756.9
571.192	2469.34
575.147	1865.09
579.099	1695.37
583.05	1635.64
586.999	1430.88
590.946	1251.81
594.891	963.42
598.834	801.378
602.776	839.493
606.715	819.711
610.653	738.767
614.589	749.815
618.523	663.813
622.456	569.058
626.386	475.447
630.315	326.92
634.242	233.652
638.167	170.371
642.09	188.578
646.012	166.853
649.931	13.507
653.849	72.356
657.765	49.274
661.679	22.181
665.592	53.706
669.502	37.386
673.411	17.08
677.318	25.652
681.223	79.942
685.126	47.76
689.028	16.155
692.927	18.157
696.825	19.688
700.721	5.721
704.616	69.342
708.508	1.554
712.399	54.275
716.288	51.923
720.175	102.417
724.06	0.806
727.944	8.796
731.825	133.402
735.705	17.917
739.584	134.327
743.46	53.83
747.334	55.486
751.207	17.696
755.078	12.269
758.947	161.407
762.815	73.72
766.68	63.208
770.544	13.136
774.406	14.321
778.267	36.659
782.125	7.23
785.982	74.982
789.837	104.372
793.69	73.458
797.542	107.754
801.391	254.128
805.239	414.146
809.085	561.466
812.93	479.169
816.772	791.754
820.613	1073.38
824.452	1278.15
828.29	1296.33
832.125	1195.01
835.959	1162.68
839.791	1267.23
843.621	1272.81
847.45	1214.33
851.277	1022.49
855.102	858.098
858.925	823.2
862.746	755.848
866.566	901.397
870.384	800.449
874.2	651.012
878.015	603.638
881.828	747.823
885.639	786.912
889.448	847.907
893.256	940.684
897.061	954.538
900.865	1046.61
904.668	1258.27
908.468	1654.79
912.267	1900.51
916.064	2205.25
919.86	2543.41
923.653	3115.64
927.445	4158.8
931.236	5652.6
935.024	8391.96
938.811	13636.2
942.596	24470.6
946.379	39358.3
950.161	32846.9
953.94	16792.3
957.719	8505.62
961.495	4605.22
965.27	2832.81
969.043	1876.63
972.814	1289.7
976.583	1051.99
980.351	990.901
984.117	868.906
987.882	755.966
991.644	775.391
995.405	601.55
999.165	1119.03
1002.92	1106.16
1006.68	1545.98
1010.43	2391.1
1014.18	2991.23
1017.93	2383.15
1021.68	1488.24
1025.43	818.948
1029.18	559.72
1032.92	469.686
1036.66	370.238
1040.4	336.099
1044.14	328.443
1047.88	395.13
1051.62	693.785
1055.35	586.344
1059.08	392.034
1062.81	398.906
1066.54	317.739
1070.27	390.737
1073.99	394.08
1077.72	429.371
1081.44	341.525
1085.16	262.508
1088.88	239.532
1092.59	34.527
1096.31	27.159
1100.02	87.097
1103.73	75.177
1107.44	95.378
1111.15	12.686
1114.86	56.966
1118.57	294.171
1122.27	155.288
1125.97	23.498
1129.67	32.426
1133.37	62.853
1137.07	1.458
1140.76	39.257
1144.45	51.4
1148.15	5.136
1151.84	46.134
1155.53	44.741
1159.21	9.195
1162.9	40.271
1166.58	56.625
1170.26	134.228
1173.94	97.37
1177.62	50.803
1181.3	35.707
1184.97	32.883
1188.65	116.838
1192.32	185.15
1195.99	216.096
1199.66	200.618
1203.33	240.88
1206.99	150.617
1210.65	69.003
1214.32	62.996
1217.98	118.479
1221.64	217.093
1225.29	189.569
1228.95	175.613
1232.6	250.643
1236.26	198.713
1239.91	135.894
1243.56	99.437
1247.2	49.59
1250.85	292.781
1254.49	127.085
1258.13	223.141
1261.78	174.978
1265.41	239.606
1269.05	148.416
1272.69	93.174
1276.32	50.205
1279.95	113.865
1283.59	159.593
1287.21	226.59
1290.84	100.574
1294.47	180.463
1298.09	168.532
1301.72	79.159
1305.34	15.782
1308.96	72.529
1312.58	6.869
1316.19	23.521
1319.81	52.655
1323.42	42.338
1327.03	20.791
1330.64	12.989
1334.25	117.459
1337.86	28.97
1341.46	38.867
1345.07	71.581
1348.67	137.684
1352.27	115.502
1355.87	174.738
1359.46	164.844
1363.06	265.022
1366.65	194.445
1370.25	96.399
1373.84	99.857
1377.43	21.333
1381.02	146.721
1384.6	88.111
1388.18	164.817
1391.77	207.601
1395.35	165.688
1398.93	139.979
1402.51	195.413
1406.08	70.546
1409.66	31.41
1413.23	74.081
1416.8	140.559
1420.37	134.534
1423.94	308.186
1427.51	170.262
1431.08	229.459
1434.64	264.757
1438.2	159.007
1441.76	277.395
1445.32	35.281
1448.88	174.573
1452.43	203.332
1455.99	83.94
1459.54	205.004
1463.09	256.757
1466.64	281.604
1470.19	264.032
1473.74	434.403
1477.28	15.662
1480.83	322.585
1484.37	90.827
1487.91	42.59
1491.45	72.467
1494.98	11.429
1498.52	54.594
1502.05	158.943
1505.59	168.996
1509.12	254.617
1512.65	110.047
1516.17	189.333
1519.7	224.782
1523.23	210.68
1526.75	148.455
1530.27	38.144
