Measurement: Raman, 514 nm, ccw, Raman Data Processed
Mineral: Vivianite
Rruff sample: R040185
Ideal chemistry: Fe^2+^_3_(PO_4_)_2_8H_2_O
Locality: Siglo XX mine, Llallagua, Bustillos, Potosi, Bolivia
Source: University of Arizona Mineral Museum
Description: Green acicular single crystal
Measured chemistry: (Fe_1.00_Mn_0.01_)_3_(P_0.97_Si_0.03_O_3.94_F_0.07_)_2_Â·8H_2_O
Pin_id: S00041
Orientation: Laser parallel to b* (0 1 0). Fiducial mark perpendicular to laser is parallel to -c [0 0 -1]
Raman shift (cm-1)	intensity
99.644	0
103.82	67.01
107.995	380.999
112.168	589.441
116.339	619.091
120.508	616.487
124.675	817.934
128.84	1122.5
133.003	711.199
137.164	371.435
141.323	349.721
145.48	463.936
149.635	424.102
153.788	210.621
157.939	222.117
162.088	371.498
166.235	318.262
170.38	102.357
174.523	87.095
178.664	625.652
182.803	1747.59
186.94	2859.62
191.076	3014.8
195.209	3615.32
199.34	3490.32
203.47	2078.88
207.597	1017.05
211.722	638.839
215.846	854.127
219.967	1671.08
224.087	3001.34
228.204	3999.72
232.32	3640.04
236.434	3233.24
240.545	2657.25
244.655	1865.78
248.763	1255.02
252.869	948.827
256.973	956.606
261.075	999.683
265.175	1201.68
269.273	1604.65
273.369	1838.4
277.463	1607.36
281.556	1137.35
285.646	697.796
289.734	385.531
293.821	335.433
297.905	535.412
301.988	1029.4
306.069	1342.32
310.147	1059.14
314.224	623.797
318.299	426.28
322.372	167.563
326.443	142.626
330.512	106.448
334.579	164.969
338.645	124.134
342.708	139.933
346.769	173.354
350.829	60.403
354.887	92.072
358.942	69.643
362.996	51.737
367.048	79.249
371.098	9.717
375.146	131.772
379.192	55.744
383.236	23.766
387.279	82.84
391.319	68.529
395.358	84.724
399.394	99.117
403.429	36.76
407.462	44.672
411.493	6.072
415.522	25.965
419.549	59.271
423.575	153.977
427.598	130.239
431.619	163.147
435.639	300.706
439.657	344.912
443.673	602.763
447.687	813.254
451.699	1138.38
455.709	1259.12
459.717	987.493
463.724	780.476
467.728	622.07
471.731	464.289
475.732	440.114
479.731	379.549
483.728	478.592
487.723	529.045
491.716	620.891
495.708	693.021
499.697	841.626
503.685	1071.01
507.671	1358.34
511.655	1686.04
515.637	2046.89
519.617	2372.02
523.596	2577.41
527.572	2782.55
531.547	3023.24
535.52	3106.61
539.491	2879.22
543.46	2820.99
547.427	2541
551.393	1977.92
555.356	1763.49
559.318	1809.57
563.278	2463.06
567.236	3847.14
571.192	4051.82
575.147	2680.53
579.099	1448.74
583.05	881.812
586.999	725.03
590.946	529.472
594.891	463.586
598.834	437.797
602.776	405.348
606.715	481.627
610.653	544.98
614.589	616.389
618.523	813.882
622.456	1021.16
626.386	1309.18
630.315	1009.94
634.242	618.469
638.167	509.218
642.09	664.299
646.012	892.167
649.931	839.834
653.849	711.311
657.765	354.602
661.679	215.719
665.592	137.664
669.502	84.447
673.411	37.083
677.318	23.467
681.223	15.399
685.126	18.677
689.028	41.659
692.927	57.457
696.825	27.238
700.721	64.105
704.616	24.611
708.508	44.596
712.399	113.493
716.288	112.902
720.175	29.399
724.06	93.597
727.944	74.838
731.825	24.881
735.705	34.551
739.584	66.76
743.46	94.098
747.334	192.457
751.207	227.836
755.078	10.232
758.947	141.648
762.815	218.091
766.68	182.569
770.544	164.092
774.406	1.334
778.267	47.3
782.125	111.993
785.982	29.741
789.837	40.123
793.69	125.489
797.542	46.498
801.391	86.614
805.239	98.844
809.085	150.195
812.93	184.676
816.772	205.293
820.613	234.058
824.452	188.887
828.29	355.917
832.125	444.058
835.959	303.877
839.791	319.509
843.621	469.849
847.45	546.486
851.277	600.8
855.102	724.726
858.925	912.636
862.746	750.782
866.566	613.938
870.384	565.771
874.2	443.489
878.015	385.555
881.828	386.891
885.639	289.298
889.448	391.823
893.256	546.183
897.061	710.855
900.865	625.862
904.668	681.281
908.468	777.043
912.267	953.185
916.064	1069.69
919.86	1216.54
923.653	1563.75
927.445	1931.26
931.236	2759.13
935.024	4336.31
938.811	7304.84
942.596	13353.7
946.379	25952.4
950.161	33081.8
953.94	22811.6
957.719	11841.7
961.495	6522.11
965.27	3782.89
969.043	2514.03
972.814	1726.65
976.583	1078.51
980.351	791.236
984.117	1034.58
987.882	1127.84
991.644	1081.58
995.405	1036.53
999.165	1272.84
1002.92	1696.71
1006.68	983.664
1010.43	949.792
1014.18	1016.47
1017.93	1153.65
1021.68	1331.37
1025.43	1409.62
1029.18	1568.31
1032.92	1937.46
1036.66	2497.01
1040.4	3877.27
1044.14	5887.69
1047.88	10089.8
1051.62	14267.9
1055.35	12059.1
1059.08	7005.63
1062.81	3709.72
1066.54	2063.44
1070.27	1427.04
1073.99	909.837
1077.72	672.276
1081.44	803.971
1085.16	675.814
1088.88	526.32
1092.59	485.14
1096.31	276.498
1100.02	158.468
1103.73	111.057
1107.44	224.264
1111.15	188.074
1114.86	172.497
1118.57	197.521
1122.27	143.001
1125.97	31.168
1129.67	25.216
1133.37	52.138
1137.07	89.575
1140.76	32.492
1144.45	34.097
1148.15	14.539
1151.84	73.333
1155.53	62.374
1159.21	96.168
1162.9	141.779
1166.58	32.482
1170.26	224.09
1173.94	186.546
1177.62	209.835
1181.3	131.136
1184.97	184.599
1188.65	98.329
1192.32	179.486
1195.99	124.304
1199.66	274.228
1203.33	218.88
1206.99	213.659
1210.65	58.261
1214.32	81.013
1217.98	146.459
1221.64	153.227
1225.29	141.205
1228.95	154.197
1232.6	55.076
1236.26	100.014
