Measurement: Raman, 514 nm, ccw, Raman Data Processed
Mineral: Vivianite
Rruff sample: R040185
Ideal chemistry: Fe^2+^_3_(PO_4_)_2_8H_2_O
Locality: Siglo XX mine, Llallagua, Bustillos, Potosi, Bolivia
Source: University of Arizona Mineral Museum
Description: Green acicular single crystal
Measured chemistry: (Fe_1.00_Mn_0.01_)_3_(P_0.97_Si_0.03_O_3.94_F_0.07_)_2_Â·8H_2_O
Pin_id: M00228
Orientation: Laser parallel to (-1 0 -1). Fiducial mark perpendicular to laser is parallel to b [0 1 0]
Raman shift (cm-1)	intensity
101.036	0
105.212	59.526
109.387	1.699
113.559	42.361
117.729	67.632
121.897	489.989
126.063	1025.96
130.228	732.214
134.39	147.637
138.55	97.532
142.709	255.899
146.865	535.664
151.019	592.507
155.171	467.222
159.322	317.381
163.47	249.506
167.617	290.286
171.761	402.554
175.904	634.573
180.044	1569.34
184.183	2911.94
188.319	4046.18
192.454	5688.43
196.586	6664
200.717	5046.4
204.846	2648.23
208.972	1509.11
213.097	1316.68
217.22	2094.52
221.341	3666.27
225.46	4647.83
229.577	4122.08
233.692	3486.05
237.805	3008.97
241.916	2052.26
246.025	1261.5
250.132	980.323
254.237	836.443
258.34	1003.01
262.442	1188.11
266.541	1468.7
270.639	1724.77
274.734	1493.16
278.828	1077.16
282.919	571.193
287.009	356.1
291.097	211.818
295.183	231.295
299.266	377.497
303.348	498.394
307.428	395.956
311.507	262.167
315.583	112.011
319.657	15.46
323.729	2.472
327.8	24.024
331.868	5.124
335.935	39.172
339.999	39.917
344.062	33.132
348.123	42.837
352.182	46.987
356.239	61.415
360.294	61.49
364.347	66.238
368.398	42.602
372.448	10.557
376.495	5.848
380.54	60.445
384.584	90.383
388.626	123.767
392.666	211.404
396.704	275.104
400.74	396.018
404.774	578.424
408.806	762.486
412.836	1114.28
416.865	1557.86
420.891	1834.24
424.916	1709.43
428.939	1328.42
432.959	922.136
436.978	733.57
440.996	687.719
445.011	766.577
449.024	967.145
453.036	1063.75
457.045	1026.85
461.053	874.369
465.059	697.802
469.063	622.959
473.065	544.576
477.065	586.03
481.063	608.605
485.06	668.678
489.054	733.486
493.047	873.857
497.038	1030.94
501.027	1173.02
505.014	1368.03
508.999	1706.64
512.982	1964.64
516.964	2252.09
520.944	2523.6
524.921	2881.97
528.897	3064.86
532.871	3151.96
536.844	3135.32
540.814	3041.02
544.783	2695.99
548.749	2183.89
552.714	1645.81
556.677	1275.69
560.638	1213.43
564.597	1306.17
568.555	1415.87
572.511	1009.53
576.464	635.145
580.416	388.723
584.366	275.267
588.315	178.779
592.261	142.263
596.206	145.722
600.148	138.161
604.089	168.583
608.028	187.993
611.965	224.4
615.901	239.814
619.834	265.234
623.766	245.658
627.696	175.088
631.624	148.532
635.551	55.01
639.475	107.551
643.398	73.747
647.318	70.532
651.237	55.754
655.155	28.01
659.07	26.543
662.984	46.906
666.895	34.981
670.805	55.926
674.713	96.051
678.62	158.626
682.524	183.839
686.427	135.459
690.328	118.026
694.227	180.943
698.124	156.511
702.02	168.494
705.913	171.578
709.805	119.038
713.695	148.613
717.584	81.19
721.47	105.802
725.355	60.448
729.238	72.129
733.119	55.844
736.998	52.596
740.876	60.384
744.752	72.207
748.626	35.068
752.498	12.965
756.368	48.9
760.237	30.872
764.104	71.882
767.969	21.929
771.832	53.014
775.693	88.136
779.553	76.295
783.411	99.491
787.267	9.724
791.122	29.993
794.974	53.297
798.825	26.631
802.674	30.987
806.522	9.628
810.367	25.248
814.211	6.112
818.053	4.502
821.893	30.267
825.732	31.838
829.568	22.641
833.403	60.559
837.236	17.383
841.068	48.727
844.898	13.047
848.726	4.23
852.552	6.607
856.376	16.118
860.199	4.284
864.02	13.63
867.839	20.912
871.656	25.165
875.472	21.418
879.286	83.671
883.098	104.925
886.909	123.188
890.717	135.456
894.524	212.743
898.33	262.031
902.133	294.427
905.935	371.628
909.735	477.95
913.533	614.277
917.33	786.146
921.124	1020.95
924.918	1373.53
928.709	1869.64
932.499	2767.99
936.286	4350.34
940.073	7791.7
943.857	14630.1
947.64	21078.5
951.421	15836.3
955.2	8364.74
958.978	4472.67
962.753	2687.85
966.527	1792.29
970.3	1257.73
974.071	964.751
977.84	935.765
981.607	934.495
985.372	1067.26
989.136	1197.87
992.898	1128.42
996.659	1028.56
1000.42	1020.84
1004.17	1070.04
1007.93	1038.55
1011.68	1144.71
1015.43	1195.65
1019.18	1097.02
1022.93	985.273
1026.68	966.155
1030.42	1073.07
1034.17	1314.45
1037.91	1822.87
1041.65	2661.24
1045.39	4325.31
1049.12	6243.41
1052.86	5485.38
1056.59	3340.67
1060.33	1927.43
1064.06	1216.94
1067.78	903.969
1071.51	686.277
1075.23	600.662
1078.96	395.064
1082.68	364.509
1086.4	265.303
1090.12	207.078
1093.83	182.907
1097.55	153.421
1101.26	143.132
1104.97	134.732
1108.68	125.029
1112.39	59.188
1116.1	53.926
1119.8	155.974
1123.5	14.829
1127.2	20.844
1130.9	4.839
1134.6	72.231
1138.3	59.102
1141.99	40.401
1145.69	60.777
1149.38	37.627
1153.07	47.393
1156.76	57.958
1160.44	45.237
1164.13	18.778
1167.81	30.422
1171.49	26.076
1175.17	5.896
1178.85	10.566
1182.52	7.065
1186.2	5.632
1189.87	31.032
1193.54	43.428
1197.21	22.767
1200.88	9.868
1204.55	9.969
1208.21	28.5
1211.88	5.668
1215.54	39.546
1219.2	51.758
1222.86	12.904
1226.51	58.019
1230.17	25.541
1233.82	12.237
1237.47	21.547
1241.12	33.002
1244.77	18.756
1248.42	60.295
1252.06	38.578
1255.71	65.89
1259.35	29.443
1262.99	28.995
1266.63	43.698
1270.26	24.786
1273.9	2.876
1277.53	35.055
1281.16	15.781
1284.8	11.272
1288.42	36.253
1292.05	23.844
1295.68	8.931
1299.3	13.287
1302.92	53.559
1306.55	19.589
1310.16	23.179
1313.78	60.572
1317.4	10.192
1321.01	79.781
1324.62	51.171
1328.24	12.842
1331.85	64.782
1335.45	19.543
1339.06	27.356
1342.66	44.442
1346.27	16.538
1349.87	49.938
1353.47	76.302
1357.07	47.438
1360.66	36.915
1364.26	28.008
1367.85	10.936
1371.44	0.832
1375.04	19.619
1378.62	62.017
1382.21	45.278
1385.8	57.562
1389.38	54.81
1392.96	55.635
1396.54	71.099
1400.12	48.416
1403.7	22.824
1407.28	3.997
1410.85	42.752
1414.42	60.879
1417.99	38.259
1421.56	51.311
1425.13	84.203
1428.7	33.464
1432.26	76.457
1435.83	65.062
1439.39	42.093
1442.95	19.948
1446.51	40.325
1450.06	1.169
1453.62	44.45
1457.17	46.651
1460.73	75.083
1464.28	40.626
1467.83	52.605
1471.37	75.778
1474.92	68.762
1478.46	42.95
1482.01	93.605
1485.55	20.927
1489.09	14.654
1492.63	9.398
1496.16	44.261
1499.7	66.591
1503.23	65.765
1506.76	97.326
1510.29	67.081
1513.82	45.382
1517.35	57.022
1520.88	26.306
1524.4	38.271
1527.92	0.172
