Measurement: Raman, 514 nm, ccw, Raman Data Processed
Mineral: Vivianite
Rruff sample: R040185
Ideal chemistry: Fe^2+^_3_(PO_4_)_2_8H_2_O
Locality: Siglo XX mine, Llallagua, Bustillos, Potosi, Bolivia
Source: University of Arizona Mineral Museum
Description: Green acicular single crystal
Measured chemistry: (Fe_1.00_Mn_0.01_)_3_(P_0.97_Si_0.03_O_3.94_F_0.07_)_2_Â·8H_2_O
Pin_id: L00515
Orientation: Laser parallel to -a* (-1 0 0). Fiducial mark perpendicular to laser is parallel to b [0 1 0]
Raman shift (cm-1)	intensity
120.855	0
125.036	168.33
129.216	391.905
133.393	220.377
137.568	9.359
141.741	42.107
145.911	135.144
150.08	336.819
154.247	354.896
158.411	151.125
162.574	66.608
166.734	77.915
170.893	123.937
175.049	133.455
179.203	331.238
183.355	870.545
187.505	1308.75
191.653	973.384
195.799	479.483
199.943	240.603
204.084	64.832
208.224	4.596
212.362	35.032
216.497	53.035
220.631	252.811
224.762	630.193
228.891	893.037
233.018	684.748
237.144	618.096
241.267	514.672
245.388	243.944
249.507	94.113
253.624	90.143
257.739	55.105
261.852	59.046
265.962	89.095
270.071	148.675
274.178	171.942
278.283	173.999
282.385	161.845
286.486	149.806
290.584	114.779
294.681	82.694
298.775	93.033
302.868	106.567
306.958	106.175
311.047	90.771
315.133	55.289
319.217	54.703
323.299	40.985
327.38	32.113
331.458	46.999
335.534	78.575
339.608	138.003
343.681	209.281
347.751	243.413
351.819	178.39
355.885	86.167
359.949	29.733
364.011	14.056
368.071	21.9
372.129	10.468
376.185	31.13
380.239	8.014
384.291	4.319
388.341	15.017
392.389	4.96
396.435	52.787
400.479	81.305
404.521	76.591
408.561	151.508
412.599	224.877
416.636	323.74
420.67	430.21
424.702	545.402
428.732	523.406
432.76	465.26
436.786	378.976
440.81	428.556
444.832	551.999
448.852	709.308
452.87	997.465
456.887	1147.45
460.901	1020.25
464.913	775.659
468.923	575.997
472.931	452.243
476.938	341.014
480.942	308.034
484.944	233.909
488.945	236.85
492.943	207.027
496.94	219.071
500.934	258.349
504.927	272.042
508.917	293.722
512.906	303.325
516.892	363.797
520.877	388.572
524.86	457.646
528.841	439.791
532.82	483.354
536.796	482.074
540.771	569.493
544.744	550.751
548.715	573.817
552.684	579.268
556.652	586.469
560.617	647.628
564.58	816.724
568.541	1025.39
572.501	1085.4
576.458	872.428
580.414	691.467
584.367	614.286
588.319	562.003
592.268	497.621
596.216	441.142
600.162	387.567
604.106	320.9
608.048	330.141
611.988	258.294
615.926	186.359
619.862	147.341
623.797	138.244
627.729	122.071
631.659	85.822
635.588	43.502
639.515	45.121
643.439	15.682
647.362	7.183
651.283	6.155
655.202	8.956
659.119	2.758
663.034	12.55
666.947	20.449
670.859	6.521
674.768	17.592
678.676	9.79
682.581	16.001
686.485	3.83
690.387	0.236
694.287	9.22
698.185	4.121
702.081	24.092
705.975	16.38
709.868	3.729
713.758	2.874
717.647	32.549
721.533	18.017
725.418	16.407
729.301	24.816
733.182	13.214
737.061	13.616
740.939	34.027
744.814	34.449
748.688	49.885
752.559	44.339
756.429	47.811
760.297	56.304
764.163	96.821
768.027	64.364
771.89	80.935
775.75	108.536
779.609	71.17
783.465	66.838
787.32	103.514
791.173	103.122
795.024	73.784
798.873	94.244
802.721	76.448
806.566	86.878
810.41	112.246
814.252	111.286
818.092	136.969
821.93	148.632
825.766	176.202
829.601	191.688
833.433	195.839
837.264	199.241
841.093	143.469
844.92	169.238
848.745	139.555
852.568	111.17
856.39	114.874
860.209	77.849
864.027	81.683
867.843	64.786
871.657	14.74
875.47	67.326
879.28	53.232
883.089	37.713
886.896	54.227
890.701	48.697
894.504	95.354
898.305	113.087
902.105	147.893
905.902	151.769
909.698	133.723
913.492	214.759
917.285	290.871
921.075	338.399
924.864	488.329
928.65	644.667
932.435	940.077
936.218	1401.56
940	2332.11
943.779	4203.74
947.557	8064.44
951.333	10610.2
955.107	7189.08
958.879	3754.04
962.65	2074.62
966.418	1231.51
970.185	783.001
973.95	568.716
977.714	443.206
981.475	373.963
985.235	322.975
988.993	264.111
992.749	225.991
996.503	233.421
1000.26	219.329
1004.01	345.292
1007.75	478.311
1011.5	677.382
1015.25	977.601
1018.99	1006.86
1022.73	688.531
1026.47	511.802
1030.21	427.126
1033.95	449.576
1037.68	426.258
1041.41	601.722
1045.15	1060.46
1048.88	1539.24
1052.6	1676.77
1056.33	1386.37
1060.05	772.176
1063.78	501.836
1067.5	338.522
1071.21	266.232
1074.93	239.17
1078.65	187.786
1082.36	156.565
1086.07	100.368
1089.78	99.185
1093.49	45.048
1097.2	47.359
1100.9	14.412
1104.6	19.371
1108.3	7.157
1112	2.856
1115.7	7.957
1119.4	38.078
1123.09	21.399
1126.78	9.239
1130.47	34.053
1134.16	12.035
1137.85	33.769
1141.54	16.341
1145.22	24.844
1148.9	17.229
1152.58	26.209
1156.26	9.702
1159.94	5.137
1163.61	24.535
1167.28	2.157
1170.95	12.828
1174.62	16.832
1178.29	6.09
1181.96	2.385
1185.62	18.846
1189.29	16.458
1192.95	5.594
1196.61	32.659
1200.26	49.68
1203.92	55.673
1207.57	56.704
1211.23	16.587
1214.88	140.415
1218.53	31.238
1222.17	16.978
1225.82	42.155
1229.46	53.864
1233.11	61.625
1236.74	75.653
1240.38	21.212
1244.02	14.707
1247.66	20.195
1251.29	13.801
1254.92	16.843
1258.55	31.042
1262.18	49.289
1265.81	32.522
1269.43	49.587
1273.06	32.369
1276.68	12.455
1280.3	5.232
1283.91	18.986
1287.53	23.919
1291.15	52.508
1294.76	36.542
1298.37	50.213
1301.98	35.987
1305.59	16.79
1309.19	30.481
1312.8	22.561
1316.4	7.564
1320	45.752
1323.6	25.218
1327.2	47.443
1330.8	58.859
1334.39	48.196
1337.98	30.984
1341.58	97.11
1345.16	36.157
1348.75	18.144
1352.34	37.899
1355.92	57.774
1359.51	47.718
1363.09	62.447
1366.67	30.072
1370.24	36.668
1373.82	16.345
1377.39	0.143
1380.97	24.54
1384.54	27.837
1388.11	49.426
1391.68	17.743
1395.24	42.477
1398.81	37.687
1402.37	35.434
1405.93	26.172
1409.49	35.215
1413.05	29.116
1416.6	14.333
1420.16	3.755
1423.71	3.699
1427.26	24.13
1430.81	23.086
1434.36	48.895
1437.91	64.577
1441.45	43.364
1444.99	56.15
1448.54	25.024
1452.08	39.794
1455.61	21.346
1459.15	29.804
1462.68	40.826
1466.22	57.105
1469.75	64.477
1473.28	93.171
1476.81	77.198
1480.33	82.41
1483.86	74.589
1487.38	51.899
1490.9	51.436
1494.42	15.703
1497.94	1.13
1501.46	34.672
1504.97	24.054
1508.49	70.628
1512	8.551
1515.51	44.309
1519.02	41.252
1522.52	5.558
