Measurement: Raman, 514 nm, ccw, Raman Data Processed
Mineral: Vivianite
Rruff sample: R040185
Ideal chemistry: Fe^2+^_3_(PO_4_)_2_8H_2_O
Locality: Siglo XX mine, Llallagua, Bustillos, Potosi, Bolivia
Source: University of Arizona Mineral Museum
Description: Green acicular single crystal
Measured chemistry: (Fe_1.00_Mn_0.01_)_3_(P_0.97_Si_0.03_O_3.94_F_0.07_)_2_Â·8H_2_O
Pin_id: M00443
Orientation: Laser parallel to -c* (0 0 -1). Fiducial mark perpendicular to laser is parallel to a [1 0 0]
Raman shift (cm-1)	intensity
107.995	0
112.168	245.823
116.339	410.078
120.508	937.447
124.675	3070.63
128.84	3406.31
133.003	1125.22
137.164	685.446
141.323	472.449
145.48	1167.06
149.635	2312.18
153.788	1879.94
157.939	1330.45
162.088	1441.23
166.235	1371.21
170.38	918.861
174.523	97.395
178.664	214.95
182.803	1018.13
186.94	2459.44
191.076	3283.24
195.209	4303.67
199.34	3062.61
203.47	2039.44
207.597	1968.45
211.722	3219.13
215.846	5985.75
219.967	11828.5
224.087	18066.8
228.204	14206.5
232.32	6865.02
236.434	3042.07
240.545	1276.06
244.655	439.623
248.763	149.417
252.869	7.731
256.973	8.292
261.075	21.737
265.175	309.896
269.273	671.875
273.369	1150.32
277.463	1432.49
281.556	1443.38
285.646	1269.37
289.734	1188.87
293.821	935.352
297.905	989.617
301.988	1035.75
306.069	752.806
310.147	549.677
314.224	552.109
318.299	452.417
322.372	472.662
326.443	565.531
330.512	819.274
334.579	1200.79
338.645	1734.71
342.708	2073.17
346.769	1698.69
350.829	823.297
354.887	324.72
358.942	102.365
362.996	1.868
367.048	101.239
371.098	133.952
375.146	54.148
379.192	61.883
383.236	18.922
387.279	86.652
391.319	76.597
395.358	203.685
399.394	316.448
403.429	425.216
407.462	606.807
411.493	778.752
415.522	975.642
419.549	1166.19
423.575	1187.21
427.598	1216.46
431.619	1215.45
435.639	1336.77
439.657	1762.39
443.673	2465.51
447.687	3342.17
451.699	4140.31
455.709	4139.87
459.717	3580.72
463.724	3019.01
467.728	2318.23
471.731	1868.29
475.732	1608.39
479.731	1439.66
483.728	1338.67
487.723	1283.39
491.716	1286.72
495.708	1369.24
499.697	1476.21
503.685	1778.3
507.671	1858.87
511.655	2094.59
515.637	2538.61
519.617	2802.25
523.596	3174.82
527.572	3667
531.547	4174.74
535.52	4521.84
539.491	4722.16
543.46	4706.48
547.427	4429.97
551.393	4155.77
555.356	3467.35
559.318	3156.53
563.278	3104.5
567.236	3183.27
571.192	2685.82
575.147	2053.52
579.099	1942.4
583.05	1732.79
586.999	1571.52
590.946	1385.02
594.891	1146.92
598.834	1064.36
602.776	962.104
606.715	811.453
610.653	617.091
614.589	469.143
618.523	353.994
622.456	304.454
626.386	232.476
630.315	81.156
634.242	98.522
638.167	21.612
642.09	77.55
646.012	28.078
649.931	73.907
653.849	24.186
657.765	8.703
661.679	10.921
665.592	32.709
669.502	8.947
673.411	170.229
677.318	36.465
681.223	21.686
685.126	52.804
689.028	56.226
692.927	64.194
696.825	108.683
700.721	115.674
704.616	103.054
708.508	75.752
712.399	34.748
716.288	14.978
720.175	95.4
724.06	19.989
727.944	4.68
731.825	42.528
735.705	23.698
739.584	0.838
743.46	18.924
747.334	22.027
751.207	47.125
755.078	30.196
758.947	4.736
762.815	13.645
766.68	15.578
770.544	36.42
774.406	2.521
778.267	84.955
782.125	121.915
785.982	217.733
789.837	252.368
793.69	327.047
797.542	438.311
801.391	555.636
805.239	711.083
809.085	772.326
812.93	857.959
816.772	1034.99
820.613	1279.68
824.452	1340.4
828.29	1470.61
832.125	1362.9
835.959	1320.26
839.791	1313.45
843.621	1299.48
847.45	1201.83
851.277	1023.63
855.102	769.741
858.925	893.097
862.746	739.708
866.566	679.593
870.384	631.764
874.2	571.222
878.015	533.984
881.828	568.958
885.639	687.727
889.448	705.069
893.256	735.825
897.061	755.458
900.865	824.284
904.668	932.503
908.468	1158.67
912.267	1300.52
916.064	1419.59
919.86	1650.14
923.653	1707.03
927.445	2068.04
931.236	2544.37
935.024	3416.97
938.811	5252.84
942.596	8793.99
946.379	13915.4
950.161	12287.7
953.94	6641.33
957.719	3689.61
961.495	2264.72
965.27	1432.72
969.043	1029.47
972.814	811.134
976.583	896.076
980.351	945.931
984.117	981.193
987.882	806.342
991.644	951.073
995.405	895.289
999.165	1172.26
1002.92	1668.07
1006.68	2516.2
1010.43	3610.49
1014.18	4202.89
1017.93	3442.19
1021.68	2230.48
1025.43	1549.74
1029.18	1183.39
1032.92	1002.33
1036.66	851.83
1040.4	731.414
1044.14	800.607
1047.88	741.518
1051.62	796.635
1055.35	784.561
1059.08	732.355
1062.81	710.203
1066.54	690.943
1070.27	915.039
1073.99	993.365
1077.72	860.828
1081.44	668.333
1085.16	465.553
1088.88	275.572
1092.59	130.67
1096.31	54.797
1100.02	27.854
1103.73	92.26
1107.44	30.712
1111.15	11.8
1114.86	82.023
1118.57	282.021
1122.27	209.462
1125.97	63.35
1129.67	24.955
1133.37	19.005
1137.07	76.285
1140.76	33.716
1144.45	7.325
1148.15	32.411
1151.84	0.387
1155.53	3.141
1159.21	7.204
1162.9	7.603
1166.58	15.519
1170.26	50.811
1173.94	48.884
1177.62	1.7
1181.3	36.444
1184.97	17.387
1188.65	85.669
1192.32	104.298
1195.99	102.583
1199.66	139.843
1203.33	41.733
1206.99	49.417
1210.65	68.913
1214.32	46.485
1217.98	117.831
1221.64	126.688
1225.29	126.328
1228.95	218
1232.6	221.682
1236.26	116.059
1239.91	61.466
1243.56	105.967
1247.2	46.255
1250.85	105.307
1254.49	71.459
1258.13	164.868
1261.78	128.774
1265.41	125.639
1269.05	133.539
1272.69	109.273
1276.32	77.869
1279.95	124.653
1283.59	121.105
1287.21	119.638
1290.84	126.983
1294.47	215.975
1298.09	211.715
1301.72	180.404
1305.34	241.543
1308.96	150.112
1312.58	151.874
1316.19	134.758
1319.81	187.076
1323.42	248.37
1327.03	156.26
1330.64	77.835
1334.25	121.718
1337.86	131.194
1341.46	99.577
1345.07	165.58
1348.67	161.129
1352.27	154.212
1355.87	122.984
1359.46	210.21
1363.06	168.769
1366.65	162.224
1370.25	96.672
1373.84	115.764
1377.43	100.905
1381.02	56.12
1384.6	70.618
1388.18	121.469
1391.77	95.388
1395.35	18.54
1398.93	78.789
1402.51	47.39
1406.08	45.301
1409.66	54.584
1413.23	6.077
1416.8	75.905
1420.37	71.756
1423.94	33.66
1427.51	67.5
1431.08	101.713
1434.64	43.55
1438.2	43.85
1441.76	41.431
1445.32	40.549
1448.88	70.705
1452.43	87.959
1455.99	80.147
1459.54	169.911
1463.09	246.363
1466.64	150.666
1470.19	194.786
1473.74	221.987
1477.28	268.645
1480.83	282.078
1484.37	261.404
1487.91	138.273
1491.45	168.778
1494.98	77.014
1498.52	81.56
1502.05	153.689
1505.59	96.966
1509.12	152.221
1512.65	119.644
1516.17	155.353
1519.7	121.267
1523.23	132.73
1526.75	99.378
1530.27	0
