Measurement: Raman, 514 nm, ccw, Raman Data Processed
Mineral: Vivianite
Rruff sample: R040185
Ideal chemistry: Fe^2+^_3_(PO_4_)_2_8H_2_O
Locality: Siglo XX mine, Llallagua, Bustillos, Potosi, Bolivia
Source: University of Arizona Mineral Museum
Description: Green acicular single crystal
Measured chemistry: (Fe_1.00_Mn_0.01_)_3_(P_0.97_Si_0.03_O_3.94_F_0.07_)_2_Â·8H_2_O
Pin_id: L00515
Orientation: Laser parallel to -a* (-1 0 0). Fiducial mark perpendicular to laser is parallel to b [0 1 0]
Raman shift (cm-1)	intensity
83.128	0
87.329	53.643
91.527	102.454
95.723	55.167
99.917	63.199
104.109	107.042
108.298	75.577
112.486	128.017
116.672	159.428
120.855	121.315
125.036	305.532
129.216	866.435
133.393	809.276
137.568	466.121
141.741	508.251
145.911	846.036
150.08	938.871
154.247	471.165
158.411	143.359
162.574	44.495
166.734	19.517
170.893	18.34
175.049	27.982
179.203	79.574
183.355	358.009
187.505	679.972
191.653	488.008
195.799	177.947
199.943	34.743
204.084	5.06
208.224	29.434
212.362	55.833
216.497	153.86
220.631	419.795
224.762	1003.74
228.891	1705.74
233.018	2284.51
237.144	2443.89
241.267	2567.21
245.388	1525.53
249.507	774.526
253.624	466.595
257.739	372.042
261.852	293.553
265.962	211.042
270.071	248.472
274.178	250.811
278.283	225.038
282.385	181.149
286.486	108.136
290.584	95
294.681	64.643
298.775	77.058
302.868	203.38
306.958	340.612
311.047	304.644
315.133	161.456
319.217	154.192
323.299	110.844
327.38	121.374
331.458	149.582
335.534	200.057
339.608	270.654
343.681	396.585
347.751	417.74
351.819	244.882
355.885	121.983
359.949	44.057
364.011	10.019
368.071	1.51
372.129	13.387
376.185	6.28
380.239	25.577
384.291	10.995
388.341	22.295
392.389	23.728
396.435	42.672
400.479	64.352
404.521	68.949
408.561	93.267
412.599	109.539
416.636	159.402
420.67	191.716
424.702	246.617
428.732	283.391
432.76	377.036
436.786	489.549
440.81	703.933
444.832	1101.18
448.852	1824.28
452.87	2763.88
456.887	3220.05
460.901	2656.23
464.913	1661.83
468.923	1028.3
472.931	652.634
476.938	454.845
480.942	338.902
484.944	268.501
488.945	203.459
492.943	160.69
496.94	172.905
500.934	164.429
504.927	185.329
508.917	167.427
512.906	207.294
516.892	209.006
520.877	258.462
524.86	301.014
528.841	368.707
532.82	408.067
536.796	459.126
540.771	487.953
544.744	531.842
548.715	539.998
552.684	730.442
556.652	843.472
560.617	1057.52
564.58	1493.74
568.541	2356.25
572.501	2952.68
576.458	1643.53
580.414	945.233
584.367	673.801
588.319	513.234
592.268	461.532
596.216	405.698
600.162	406.733
604.106	389.639
608.048	417.418
611.988	414.076
615.926	382.618
619.862	346.047
623.797	319.358
627.729	314.554
631.659	223.634
635.588	138.603
639.515	82.462
643.439	87.216
647.362	58.865
651.283	53.398
655.202	0.186
659.119	10.923
663.034	3.833
666.947	3.972
670.859	3.376
674.768	6.039
678.676	37.943
682.581	41.141
686.485	8.414
690.387	7.825
694.287	6.861
698.185	15.65
702.081	27.545
705.975	9.427
709.868	12.677
713.758	10.178
717.647	2.006
721.533	21.777
725.418	70.539
729.301	99.282
733.182	91.005
737.061	132.709
740.939	165.4
744.814	216.081
748.688	246.756
752.559	226.432
756.429	250.11
760.297	320.796
764.163	309.494
768.027	329.208
771.89	347.943
775.75	289.702
779.609	270.489
783.465	257.31
787.32	321.168
791.173	275.066
795.024	270.987
798.873	297.981
802.721	319.709
806.566	352.275
810.41	403.667
814.252	439.312
818.092	466.712
821.93	457.456
825.766	520.464
829.601	564.403
833.433	594.945
837.264	640.24
841.093	517.229
844.92	479.805
848.745	478.214
852.568	490.48
856.39	402.422
860.209	305.823
864.027	270.763
867.843	257.066
871.657	251.623
875.47	258.243
879.28	267.017
883.089	561.946
886.896	256.032
890.701	297.278
894.504	362.69
898.305	381.282
902.105	445.058
905.902	516.999
909.698	587.114
913.492	734.41
917.285	1014.88
921.075	1244.53
924.864	1544.35
928.65	2152.38
932.435	2957.58
936.218	4684.96
940	7664.51
943.779	14084.2
947.557	26561.1
951.333	35048.4
955.107	23505.7
958.879	12354.3
962.65	6733.49
966.418	4102.08
970.185	2705.41
973.95	1774.71
977.714	1237.07
981.475	993.584
985.235	700.993
988.993	564.046
992.749	350.438
996.503	311.913
1000.26	237.794
1004.01	220.981
1007.75	255.222
1011.5	366.974
1015.25	411.465
1018.99	450.614
1022.73	394.962
1026.47	453.32
1030.21	510.788
1033.95	748.394
1037.68	1007.12
1041.41	1418.12
1045.15	2201.58
1048.88	3589.92
1052.6	4892.12
1056.33	4187.55
1060.05	2220.95
1063.78	1144.09
1067.5	567.692
1071.21	352.624
1074.93	159.256
1078.65	63.211
1082.36	70.163
1086.07	65.191
1089.78	107.364
1093.49	44.551
1097.2	35.782
1100.9	4.433
1104.6	34.095
1108.3	4.555
1112	44.169
1115.7	4.166
1119.4	3.017
1123.09	19.104
1126.78	61.705
1130.47	60.582
1134.16	35.159
1137.85	13.835
1141.54	43.336
1145.22	64.546
1148.9	31.472
1152.58	9.796
1156.26	7.221
1159.94	20.82
1163.61	28.759
1167.28	51.405
1170.95	42.355
1174.62	107.651
1178.29	77.485
1181.96	43.152
1185.62	14.765
1189.29	12.297
1192.95	6.9
1196.61	33.582
1200.26	59.647
1203.92	85.922
1207.57	63.141
1211.23	44.386
1214.88	23.562
1218.53	14.493
1222.17	60.989
1225.82	75.753
1229.46	63.396
1233.11	113.398
1236.74	84.519
1240.38	56.345
1244.02	26.645
1247.66	58.764
1251.29	47.779
1254.92	51.754
1258.55	87.528
1262.18	120.535
1265.81	111.109
1269.43	76.077
1273.06	45.639
1276.68	19.504
1280.3	58.935
1283.91	17.76
1287.53	218.043
1291.15	47.517
1294.76	56.982
1298.37	47.368
1301.98	30.618
1305.59	8.93
1309.19	0.65
1312.8	13.114
1316.4	6.444
1320	31.829
1323.6	75.174
1327.2	52.485
1330.8	73.632
1334.39	62.439
1337.98	47.982
1341.58	1.077
1345.16	34.766
1348.75	4.673
1352.34	27.924
1355.92	81.805
1359.51	61.872
1363.09	88.731
1366.67	94.824
1370.24	86.862
1373.82	15.99
1377.39	33.644
1380.97	39.729
1384.54	56.201
1388.11	31.852
1391.68	74.629
1395.24	103.103
1398.81	96.71
1402.37	86.708
1405.93	77.825
1409.49	72.352
1413.05	62.849
1416.6	37.525
1420.16	9.554
1423.71	21.603
1427.26	76.339
1430.81	93.395
1434.36	100.796
1437.91	118.339
1441.45	59.57
1444.99	92.793
1448.54	37.431
1452.08	45.749
1455.61	195.933
1459.15	44.203
1462.68	76.345
1466.22	91.466
1469.75	85.465
1473.28	140.454
1476.81	117.753
1480.33	105.732
1483.86	75.596
1487.38	75.454
1490.9	56.35
1494.42	48.5
1497.94	8.933
1501.46	15.59
1504.97	31.479
1508.49	47.159
1512	44.494
1515.51	56.559
1519.02	0
