Measurement: Raman, 514 nm, ccw, Raman Data Processed
Mineral: Vivianite
Rruff sample: R040185
Ideal chemistry: Fe^2+^_3_(PO_4_)_2_8H_2_O
Locality: Siglo XX mine, Llallagua, Bustillos, Potosi, Bolivia
Source: University of Arizona Mineral Museum
Description: Green acicular single crystal
Measured chemistry: (Fe_1.00_Mn_0.01_)_3_(P_0.97_Si_0.03_O_3.94_F_0.07_)_2_Â·8H_2_O
Pin_id: M00228
Orientation: Laser parallel to (-1 0 -1). Fiducial mark perpendicular to laser is parallel to b [0 1 0]
Raman shift (cm-1)	intensity
102.428	0
106.604	7.828
110.777	362.218
114.949	970.45
119.119	1792.95
123.286	3692.63
127.452	5226.39
131.615	3543.44
135.777	1996.59
139.937	1515.44
144.094	1761.08
148.25	2415.58
152.403	2954.78
156.555	3116.8
160.705	3459.78
164.853	3316.28
168.998	2726.48
173.142	1599.78
177.284	1149.56
181.424	1631.79
185.562	2851.15
189.698	3832.8
193.831	4315.09
197.963	4066.31
202.093	3164.54
206.221	3210.08
210.347	4757.56
214.472	8298.51
218.594	12628.3
222.714	16523.8
226.832	13998.1
230.948	8098.98
235.063	3843.49
239.175	1834.26
243.286	917.772
247.394	927.024
251.501	642.346
255.605	395.52
259.708	518.503
263.808	756.795
267.907	1055.67
272.004	1558.56
276.099	1966.49
280.192	2267.96
284.283	2591.03
288.372	2544.89
292.459	2198.96
296.544	2102.86
300.627	1916.28
304.709	1667.99
308.788	1426.74
312.865	1184.37
316.941	937.743
321.015	1086.78
325.086	1175.42
329.156	1405.68
333.224	1829.54
337.29	2425.72
341.354	2719.96
345.416	2240.05
349.476	1328.13
353.534	682.319
357.591	160.545
361.645	100.416
365.698	193.042
369.748	262.508
373.797	314.362
377.844	234.418
381.889	179.597
385.932	70.681
389.973	73.462
394.012	139.05
398.049	322.619
402.084	477.045
406.118	878.515
410.15	1155.04
414.179	1610.38
418.207	1937.53
422.233	2074.36
426.257	1979.19
430.279	1957.46
434.299	2125.29
438.318	2633.57
442.334	3190.24
446.349	4274.23
450.361	5294.55
454.372	6074.15
458.381	5852.02
462.388	5358.2
466.394	4683.54
470.397	4043.91
474.398	3353.38
478.398	2904.53
482.396	2664.41
486.391	2656.22
490.385	2565.08
494.377	2591.76
498.368	2716.25
502.356	2811.51
506.342	3135.96
510.327	3390.84
514.31	3784.04
518.291	4070.13
522.27	4570.72
526.247	4978.82
530.222	5400.66
534.196	5430.99
538.167	5754.49
542.137	5529.59
546.105	5194.32
550.071	4703.16
554.035	4227.87
557.998	3800.99
561.958	3751.03
565.917	3839.1
569.874	3512.15
573.829	3362.09
577.782	2991.63
581.733	2800.17
585.683	2574.93
589.63	2469.91
593.576	2279.49
597.52	1997.33
601.462	1710.16
605.402	1376.92
609.341	1122.16
613.277	922.46
617.212	678.642
621.145	548.928
625.076	314.6
629.006	347.637
632.933	206.06
636.859	116.892
640.783	27.168
644.705	47.127
648.625	26.104
652.543	25.703
656.46	29.924
660.375	7.763
664.288	63.196
668.199	50.196
672.108	18.376
676.016	0.3
679.921	67.842
683.825	44.758
687.727	58.736
691.628	101.407
695.526	62.759
699.423	145.191
703.318	51.592
707.211	62.73
711.102	12.445
714.992	6.643
718.879	5.209
722.765	30.028
726.649	58.997
730.532	33.044
734.412	12.171
738.291	55.38
742.168	0.317
746.043	7.903
749.916	54.627
753.788	11.285
757.658	23.909
761.526	62.049
765.392	34.183
769.257	87.515
773.119	25.061
776.98	119.736
780.839	124.943
784.697	210.763
788.552	339.171
792.406	385.987
796.258	500.411
800.108	494.631
803.957	607.472
807.804	730.524
811.649	861.221
815.492	807.149
819.333	936.07
823.173	1047.77
827.011	1040.54
830.847	1145.4
834.681	1063.71
838.514	939.015
842.345	831.739
846.174	764.894
850.001	663.861
853.827	641.683
857.651	546.898
861.473	429.522
865.293	434.563
869.112	439.02
872.928	361.858
876.744	458.059
880.557	428.214
884.369	359.617
888.178	399.982
891.987	471.714
895.793	475.792
899.598	684.167
903.401	720.706
907.202	686.461
911.001	796.531
914.799	1030.95
918.595	1173.74
922.389	1359.89
926.182	1598.9
929.972	2059.26
933.761	2613.99
937.549	4053.11
941.334	7058.61
945.118	11694.5
948.9	12530.8
952.681	8077.56
956.459	4434.78
960.236	2503.42
964.012	1609.84
967.785	1232.47
971.557	1058.9
975.327	956.346
979.095	1072.6
982.862	1237.89
986.627	1345.97
990.39	1441.55
994.152	1652.46
997.912	2155.03
1001.67	2944.16
1005.43	4394.37
1009.18	6017.2
1012.93	7600.72
1016.68	7040.17
1020.43	5216.15
1024.18	3651.64
1027.93	2747.03
1031.67	2358.2
1035.42	2093.7
1039.16	2071.73
1042.9	2062.9
1046.63	2102.24
1050.37	1993.4
1054.11	1731.7
1057.84	1686.18
1061.57	1766.05
1065.3	1902.32
1069.03	2206.61
1072.75	2264.6
1076.47	2003.44
1080.2	1406.68
1083.92	1004.74
1087.64	640.977
1091.36	532.042
1095.07	351.515
1098.79	252.831
1102.5	89.411
1106.21	21.412
1109.92	34.604
1113.62	46.937
1117.33	4.228
1121.04	526.714
1124.74	48.825
1128.44	36.343
1132.14	54.706
1135.83	31.399
1139.53	26.454
1143.22	61.208
1146.92	33.714
1150.61	10.897
1154.3	68.217
1157.98	10.147
1161.67	57.074
1165.35	15.417
1169.04	38.688
1172.72	27.786
1176.4	61.708
1180.07	14.435
1183.75	74.855
1187.42	61.642
1191.1	83.069
1194.77	44.849
1198.44	140.39
1202.1	162.714
1205.77	101.834
1209.43	139.693
1213.1	136.305
1216.76	115.649
1220.42	200.728
1224.07	102.738
1227.73	158.339
1231.38	142.034
1235.04	166.817
1238.69	209.163
1242.34	189.12
1245.99	180.502
1249.63	132.704
1253.28	165.842
1256.92	127.858
1260.56	192.443
1264.2	179.97
1267.84	207.047
1271.48	181.182
1275.11	264.066
1278.74	216.111
1282.38	281.113
1286.01	301.494
1289.63	330.844
1293.26	335.583
1296.89	390.327
1300.51	405.494
1304.13	418.148
1307.75	354.102
1311.37	371.766
1314.99	294.034
1318.6	358.622
1322.22	329.096
1325.83	351.194
1329.44	346.48
1333.05	348.957
1336.66	316.41
1340.26	331.179
1343.87	344.541
1347.47	210.497
1351.07	244.807
1354.67	268.507
1358.27	329.304
1361.86	305.696
1365.46	274.11
1369.05	216.84
1372.64	231.451
1376.23	156.47
1379.82	96.141
1383.41	112.655
1386.99	87.745
1390.57	11.678
1394.16	15.921
1397.74	14.329
1401.32	12.445
1404.89	48.552
1408.47	21.101
1412.04	32.738
1415.61	50.106
1419.18	46.277
1422.75	10.658
1426.32	79.175
1429.89	26.861
1433.45	53.466
1437.01	105.981
1440.58	118.072
1444.13	123.849
1447.69	132.419
1451.25	200.718
1454.81	247.427
1458.36	241.357
1461.91	220.627
1465.46	303.504
1469.01	269.753
1472.56	238.253
1476.1	279.417
1479.64	323.403
1483.19	315.875
1486.73	217.375
1490.27	236.255
1493.81	230.013
1497.34	182.603
1500.88	92.206
1504.41	103.883
1507.94	103.565
1511.47	46.976
1515	32.923
1518.53	64.06
1522.05	118.383
1525.57	5.109
1529.1	0
