Measurement: Raman, 632.8, ccw, Raman Data Processed
Mineral: Volaschioite
Rruff sample: R130078
Ideal chemistry: Fe_4_(SO_4_)O_2_(OH)_6_2H_2_O
Locality: Fornovolasco, Apuan Alps, Tuscany, Italy
Source: Cristian Biagioni
Description: Radial aggregates of yellowish-orange, transparent bladed crystals. Associated with pyrite and iron oxyhydroxides. Data from Biagioni et al (2011)
Measured chemistry: Fe_4.16_(SO_4_)_0.92_O_2.32_(OH)_6_Â·2H_2_O
Raman shift (cm-1)	intensity
98.0428	0
108.105	135.474
118.166	6.18872
128.228	182.969
138.29	184.593
148.352	65.8224
158.414	88.0438
168.476	468.183
178.537	105.539
188.599	99.7027
198.661	60.2409
208.723	7.55127
218.785	1.23544
228.847	25.6791
238.908	155.668
248.97	317.947
259.032	192.017
269.094	90.5817
279.156	72.9548
289.218	117.747
299.279	260.196
309.341	399.646
319.403	717.59
329.465	224.554
339.527	78.6844
349.589	7.53146
359.65	9.29114
369.712	20.7418
379.774	115.734
389.836	205.505
399.898	449.495
409.96	683.739
420.021	298.027
430.083	306.187
440.145	639.715
450.207	1012.58
460.269	701.926
470.331	316.981
480.392	140.263
490.454	72.3817
500.516	57.2543
510.578	77.4131
520.64	117.049
530.701	127.461
540.763	75.4862
550.825	25.2175
560.887	2.64395
570.949	9.60516
581.011	4.71612
591.072	1.60674
601.134	12.9465
611.196	7.4267
621.258	7.06845
631.32	6.66957
641.382	22.4851
651.443	32.9034
661.505	60.5125
671.567	106.128
681.629	218.535
691.691	377.15
701.753	389.502
711.814	273.047
721.876	164.322
731.938	106.169
742	75.2757
752.062	54.0754
762.124	34.6679
772.185	32.0398
782.247	26.9569
792.309	18.127
802.371	9.65968
812.433	6.48222
822.495	3.82164
832.556	5.36935
842.618	1.50668
852.68	0.018311
862.742	2.17514
872.804	3.97716
882.865	2.06055
892.927	4.1189
902.989	7.60278
913.051	13.7489
923.113	28.8595
933.175	46.4517
943.237	51.1509
953.298	39.4402
963.36	22.3804
973.422	29.0227
983.484	20.4292
993.546	29.2616
1003.61	133.189
1013.67	54.5334
1023.73	39.6076
1033.79	77.9077
1043.85	186.022
1053.92	323.281
1063.98	249.177
1074.04	107.508
1084.1	46.3549
1094.16	17.9481
1104.23	6.39087
1114.29	3.72638
1124.35	0.492538
1134.41	8.01064
1144.47	28.5014
1154.53	54.6313
1164.6	114.224
1174.66	199.019
1184.72	166.295
1194.78	65.2114
1204.84	27.4794
1214.91	25.8948
1224.97	4.4781
1235.03	0.575287
1245.09	2.44473
1255.15	1.93634
1265.22	0.880539
1275.28	9.98955
1285.34	15.9416
1295.4	19.0513
1305.46	16.1142
1315.52	19.9902
1325.59	23.2942
1335.65	27.0546
1345.71	19.9342
1355.77	5.12584
1365.83	7.74847
1375.9	0.461365
1385.96	11.676
1396.02	8.56021
1406.08	3.24968
1416.14	3.08015
1426.2	1.08885
1436.27	10.6141
1446.33	13.9663
1456.39	3.42903
1466.45	3.19569
1476.51	2.88779
1486.58	0.789703
1496.64	0.127579
1506.7	4.54213
1516.76	3.61253
1526.82	23.2152
1536.88	30.389
1546.95	12.5387
1557.01	6.53749
1567.07	6.07892
1577.13	1.23843
1587.19	3.60426
1597.26	8.32451
1607.32	11.192
1617.38	15.3434
1627.44	13.1499
1637.5	9.18658
1647.56	15.8828
1657.63	14.3163
1667.69	11.9546
1677.75	12.1447
1687.81	12.5534
1697.87	8.83769
1707.94	0.86409
1718	8.24034
1728.06	5.07745
1738.12	7.49542
1748.18	7.08186
1758.24	7.78075
1768.31	9.12642
1778.37	5.60777
1788.43	7.23697
1798.49	4.41084
1808.55	5.97494
1818.62	3.82892
1828.68	4.71208
1838.74	1.81227
1848.8	2.84555
1858.86	5.55839
1868.92	7.61737
1878.99	0.009445
1889.05	6.06364
1899.11	2.00153
1909.17	6.67636
1919.23	4.75401
1929.3	2.91717
1939.36	1.51509
1949.42	5.42342
1959.48	1.79642
1969.54	0.735168
1979.6	0.993225
1989.67	2.01125
1999.73	2.50909
2009.79	2.4091
2019.85	4.96663
2029.91	3.36037
2039.98	3.49261
2050.04	9.87413
2060.1	2.84119
2070.16	3.93939
2080.22	4.71948
2090.29	2.23015
2100.35	4.16046
2110.41	3.16254
2120.47	2.42062
2130.53	0.622482
2140.59	6.34567
2150.66	6.94356
2160.72	6.25613
2170.78	3.72348
2180.84	1.91327
2190.9	0.180664
2200.97	1.73366
2211.03	4.88307
2221.09	4.57187
2231.15	4.21146
2241.21	4.26871
2251.27	5.56088
2261.34	3.93262
2271.4	2.90137
2281.46	4.55759
2291.52	2.97421
2301.58	2.39757
2311.65	4.65979
2321.71	0.460693
2331.77	0.918121
2341.83	4.10527
2351.89	6.51346
2361.95	8.03064
2372.02	2.54744
2382.08	2.52068
2392.14	4.07108
2402.2	9.50381
2412.26	1.44327
2422.33	4.97435
2432.39	0.485565
2442.45	4.90247
2452.51	3.80473
2462.57	0.004593
2472.63	4.32083
2482.7	3.09598
2492.76	2.59761
2502.82	3.05852
2512.88	3.49101
2522.94	3.17511
2533.01	1.98419
2543.07	4.21446
2553.13	1.03767
2563.19	3.03226
2573.25	2.88644
2583.31	1.34641
2593.38	4.58182
2603.44	3.58455
2613.5	3.62186
2623.56	7.98305
2633.62	2.34994
2643.69	0.948166
2653.75	1.93877
2663.81	2.87219
2673.87	2.45964
2683.93	4.41763
2693.99	6.1029
2704.06	1.99374
2714.12	2.57564
2724.18	2.09586
2734.24	2.89803
2744.3	5.4501
2754.37	2.16599
2764.43	3.49312
2774.49	2.44919
2784.55	0.109161
2794.61	3.40977
2804.68	3.58432
2814.74	3.948
2824.8	0.938278
2834.86	1.89201
2844.92	4.54982
2854.98	1.63443
2865.05	1.37949
2875.11	1.67221
2885.17	4.25775
2895.23	6.48341
2905.29	1.02411
2915.35	1.42836
2925.42	3.05795
2935.48	5.07404
2945.54	6.42418
2955.6	3.35062
2965.66	4.22496
2975.73	4.44038
2985.79	3.52759
2995.85	3.60799
3005.91	1.38872
3015.97	1.01938
3026.04	1.91417
3036.1	3.99667
3046.16	1.83901
3056.22	3.56181
3066.28	3.29479
3076.34	3.52663
3086.41	1.59082
3096.47	4.47299
3106.53	2.23703
3116.59	1.00111
3126.65	5.49161
3136.72	5.62447
3146.78	4.47928
3156.84	6.2525
3166.9	0.827209
3176.96	4.30785
3187.02	0.272049
3197.09	3.67876
3207.15	3.97919
3217.21	4.02534
3227.27	1.69298
3237.33	4.07733
3247.4	2.04297
3257.46	2.9899
3267.52	1.25264
3277.58	0.780777
3287.64	0.643478
3297.7	1.30928
3307.77	1.65039
3317.83	4.9769
3327.89	5.20125
3337.95	3.15108
3348.01	3.80949
3358.08	6.75775
3368.14	0.663742
3378.2	4.67564
3388.26	1.74568
3398.32	0.420181
3408.38	4.00127
3418.45	2.2339
3428.51	2.52945
3438.57	6.94136
3448.63	1.46599
3458.69	3.93689
3468.76	4.73624
3478.82	0.630783
3488.88	3.0219
3498.94	3.42107
3509	1.7773
3519.06	2.5985
3529.13	1.23413
3539.19	5.43296
3549.25	5.20569
3559.31	0.89183
3569.37	2.11551
3579.44	2.21748
3589.5	1.84889
3599.56	3.46837
3609.62	6.57919
3619.68	3.28498
3629.74	3.38239
3639.81	4.18004
3649.87	2.79684
3659.93	0.480667
3669.99	3.50606
3680.05	1.66105
3690.12	0.558304
3700.18	1.60934
3710.24	0.672607
3720.3	3.80701
3730.36	3.0544
3740.43	0.752632
3750.49	2.92713
3760.55	0.787666
3770.61	0.515594
3780.67	0.500069
3790.73	0.649353
3800.8	1.5723
3810.86	2.26803
3820.92	1.09477
3830.98	1.3355
3841.04	0.709091
3851.11	1.55241
3861.17	1.70537
3871.23	3.47314
3881.29	2.60538
3891.35	2.39739
3901.41	0.605034
3911.48	1.19299
3921.54	2.9174
3931.6	4.19431
3941.66	3.18431
3951.72	2.11919
3961.79	0.999329
3971.85	1.50905
3981.91	3.1747
3991.97	2.52762
4002.03	2.95399
4012.09	0.032066
4022.16	1.70258
