Measurement: Raman, 514 nm, ccw, Raman Data Processed
Mineral: Wavellite
Rruff sample: R040176
Ideal chemistry: Al_3_(PO_4_)_2_(OH)_3_5H_2_O
Locality: Montgomery County, Arkansas, USA
Source: University of Arizona Mineral Museum
Description: Pale green radial aggregates
Measured chemistry: (Al_0.88_V_0.03_)_3_(P_0.97_O_4_)_2_((OH)_1.74_F_0.26_)_3_Â·5H_2_O
Pin_id: S00512
Orientation: Laser parallel to -c* (0 0 -1). Fiducial mark perpendicular to laser is parallel to a [1 0 0]
Raman shift (cm-1)	intensity
89.193	0
93.375	925.369
97.554	4002.55
101.732	7229.74
105.908	7050.53
110.082	3289.94
114.254	1373.6
118.424	1256.04
122.592	1005.44
126.758	627.52
130.922	405.001
135.083	45.906
139.243	525.115
143.401	1112.01
147.557	1623.95
151.711	1918.14
155.863	2473.67
160.013	2994.86
164.161	3335.09
168.308	2960.03
172.452	2256.33
176.594	1223.46
180.734	362.116
184.872	89.424
189.008	440.284
193.143	379.713
197.275	330.935
201.405	177.601
205.534	1415.59
209.66	3175.04
213.784	4046.08
217.907	3164.3
222.027	2218.9
226.146	1701.49
230.263	1518.09
234.377	1825.05
238.49	2127.41
242.601	2842.09
246.709	3373.03
250.816	3627.21
254.921	3861.06
259.024	3514.83
263.125	2774.28
267.224	2532.71
271.321	3065.09
275.416	4060.36
279.51	5583.94
283.601	7520.97
287.69	9286.16
291.778	10486.7
295.863	9629.81
299.947	8730.84
304.029	9344.7
308.108	13017.6
312.186	18531.5
316.262	20524.5
320.336	16116.7
324.408	10552.8
328.478	6694.91
332.546	4783.48
336.612	4078.52
340.677	4665.1
344.739	6932.2
348.799	10110.4
352.858	13276.7
356.915	13269.1
360.969	10048
365.022	6958
369.073	5620.23
373.122	6051.05
377.169	7672.85
381.215	10591.2
385.258	13926.1
389.299	17496.5
393.339	19795.4
397.376	19622.8
401.412	16851.7
405.446	14097.2
409.478	11320
413.508	8540.4
417.536	6121.26
421.562	4408.86
425.586	3010.1
429.609	1890.9
433.629	1149.85
437.648	795.92
441.665	464.222
445.68	359.138
449.693	225.648
453.704	253.777
457.713	238.403
461.721	249.467
465.726	281.902
469.73	299.688
473.731	476.954
477.731	308.625
481.729	357.674
485.725	265.108
489.72	161.943
493.712	5.042
497.703	47.555
501.691	132.123
505.678	133.933
509.663	140.153
513.646	166.346
517.627	60.839
521.607	6.616
525.584	24.477
529.56	34.361
533.534	35.197
537.506	285.999
541.476	567.821
545.444	980.65
549.41	1495.47
553.375	2328.57
557.337	3255.2
561.298	4061.01
565.257	5259.69
569.214	6104.5
573.17	6410.7
577.123	6668.94
581.075	6463.12
585.024	5774.03
588.972	5023.63
592.918	4319.36
596.863	3712.26
600.805	3044.98
604.746	2711.74
608.685	2472.62
612.621	2533.04
616.557	2784.14
620.49	3148.11
624.421	3548.98
628.351	4193.87
632.279	4619.2
636.205	4750.49
640.129	4835.21
644.051	4702.78
647.972	4563.91
651.89	3993.82
655.807	3659.08
659.722	3017.72
663.636	2432.59
667.547	2158.42
671.457	1882.64
675.365	1525.28
679.271	1335.45
683.175	1162.44
687.077	923.253
690.978	705.89
694.877	654.727
698.774	411.089
702.669	434.977
706.562	458.387
710.454	340.316
714.344	134.743
718.232	99.641
722.118	176.985
726.002	112.792
729.885	124.014
733.766	33.644
737.645	22.57
741.522	10.213
745.397	75.236
749.271	64.031
753.143	113.949
757.013	129.975
760.881	77.095
764.748	37.308
768.613	121.547
772.476	55.682
776.337	10.563
780.196	10.035
784.054	40.103
787.91	39.878
791.764	7.273
795.616	71.223
799.467	26.889
803.316	102.134
807.163	44.989
811.008	78.492
814.851	29.592
818.693	13.444
822.533	2.467
826.371	51.518
830.208	135.434
834.042	19.271
837.875	194.007
841.706	168.545
845.536	137.892
849.363	120.046
853.189	213
857.013	202.768
860.836	169.362
864.656	197.509
868.475	206.007
872.292	169.39
876.108	113.724
879.922	119.534
883.733	227.939
887.544	172.501
891.352	210.959
895.159	326.118
898.964	287.141
902.767	392.651
906.568	507.399
910.368	537.056
914.166	655.893
917.962	637.669
921.757	811.061
925.55	1016.09
929.341	1111.95
933.13	1335.06
936.918	1289.17
940.703	1453.67
944.488	1487.14
948.27	1613.04
952.051	1763.8
955.83	1732.42
959.607	1692.41
963.383	1749.95
967.156	1880.99
970.928	2070.92
974.699	2260.14
978.468	2635.21
982.234	3234.73
986	4094.65
989.763	4837.01
993.525	5845.75
997.285	7399.97
1001.04	9473.6
1004.8	11821.7
1008.55	15640.3
1012.31	21363.3
1016.06	28566.8
1019.81	35183.7
1023.56	37550.1
1027.31	32589.2
1031.05	23931.7
1034.79	17267.8
1038.53	13143.6
1042.27	11128
1046.01	11033
1049.75	10947.7
1053.48	10365.1
1057.22	8598.21
1060.95	6489.04
1064.68	4628.17
1068.4	3567.15
1072.13	2756.05
1075.86	2006.05
1079.58	1612.31
1083.3	1189.43
1087.02	1131.77
1090.74	953.769
1094.45	902.953
1098.17	831.357
1101.88	842.304
1105.59	968.395
1109.3	1004.82
1113.01	1137.06
1116.71	1263.45
1120.42	1457.32
1124.12	2181.57
1127.82	2211.46
1131.52	2713.05
1135.22	3350.61
1138.91	4517.07
1142.61	5538.81
1146.3	6790.15
1149.99	7941.98
1153.68	8749.78
1157.37	8097.46
1161.06	6963.43
1164.74	5171.23
1168.42	3834.9
1172.1	2502.55
1175.78	1805.75
1179.46	1233.41
1183.14	717.361
1186.81	518.719
1190.48	409.744
1194.15	209.244
1197.83	89.875
1201.49	56.283
1205.16	107.393
1208.82	104.886
1212.49	20.286
1216.15	32.288
1219.81	64.098
1223.46	189.987
1227.12	64.818
1230.78	77.393
1234.43	25.658
1238.08	55.431
1241.73	14.255
1245.38	5.726
1249.03	94.342
1252.67	67.119
1256.31	0.716
1259.95	146.991
1263.6	97.013
1267.23	93.307
1270.87	23.852
1274.51	85.213
1278.14	73.735
1281.77	82.595
1285.4	130.871
1289.03	78.849
1292.66	103.604
1296.28	93.854
1299.91	149.498
1303.53	144.561
1307.15	126.113
1310.77	220.292
1314.38	19.613
1318	32.329
1321.61	86.417
1325.23	39.198
1328.84	9.031
1332.45	48.022
1336.06	25.414
1339.66	25.845
1343.27	47.217
1346.87	51.76
1350.47	69.526
1354.07	192.676
1357.67	115.702
1361.26	180.099
1364.86	257.526
1368.45	172.711
1372.04	137.738
1375.63	56.611
1379.22	8.572
1382.81	44.88
1386.39	175.71
1389.98	140.511
1393.56	122.392
1397.14	166.285
1400.72	148.042
1404.3	244.685
1407.87	157.644
1411.45	42.595
1415.02	298.101
1418.59	225.578
1422.16	221.256
1425.73	269.463
1429.29	241.399
1432.86	253.037
1436.42	344.119
1439.98	210.503
1443.54	278.879
1447.1	270.654
1450.66	124.611
1454.21	298.33
1457.77	226.506
1461.32	341.113
1464.87	346.047
1468.42	192.69
1471.96	295.267
1475.51	285.927
1479.06	219.24
1482.6	118.097
1486.14	118.762
1489.68	108.661
1493.22	322.298
1496.75	204.606
1500.29	64.734
1503.82	0.581
1507.35	95.385
1510.88	96.032
1514.41	104.032
1517.94	276.017
1521.46	0
