Measurement: Raman, 514 nm, ccw, Raman Data Processed
Mineral: Wavellite
Rruff sample: R040176
Ideal chemistry: Al_3_(PO_4_)_2_(OH)_3_5H_2_O
Locality: Montgomery County, Arkansas, USA
Source: University of Arizona Mineral Museum
Description: Pale green radial aggregates
Measured chemistry: (Al_0.88_V_0.03_)_3_(P_0.97_O_4_)_2_((OH)_1.74_F_0.26_)_3_Â·5H_2_O
Pin_id: L00054
Orientation: Laser parallel to -a* (-1 0 0). Fiducial mark perpendicular to laser is parallel to b [0 1 0]
Raman shift (cm-1)	intensity
78.031	0
82.218	754.799
86.404	1480.84
90.587	2864.3
94.768	5674.36
98.947	10223.6
103.124	11468.5
107.3	7233.22
111.473	3929.04
115.644	3003.14
119.813	2029.02
123.981	1337.88
128.146	919.578
132.309	1020.83
136.47	1354.95
140.63	1873.89
144.787	2276.59
148.942	2480.86
153.096	2600.84
157.247	2752.36
161.396	2798.58
165.544	2483.26
169.689	1992.24
173.833	1246.02
177.974	327.947
182.114	202.199
186.251	352.115
190.387	426.956
194.52	418.993
198.652	0.405
202.782	669.626
206.909	2265.69
211.035	3585.11
215.159	2598.74
219.281	1604.58
223.4	1179.24
227.518	1199.06
231.634	1486.06
235.748	1785.18
239.86	2500.36
243.97	3124.8
248.079	3742.27
252.185	4047.12
256.289	4131.25
260.391	3513.35
264.492	2925.05
268.59	3057.64
272.687	4171.52
276.781	5956.83
280.874	7006.57
284.964	8030.85
289.053	8988.49
293.14	8507.4
297.225	6767.48
301.308	7174.95
305.389	10546.4
309.468	16942.3
313.545	21395.1
317.62	18276.7
321.693	11641.8
325.765	7245.05
329.834	4766.39
333.902	3804.45
337.967	3750.95
342.031	5274.46
346.093	8099.84
350.153	12221.7
354.21	13664.8
358.267	11415.4
362.321	7487.62
366.373	5185.92
370.423	4841.56
374.471	5989.51
378.518	7881.73
382.563	11268.2
386.605	15404
390.646	18647.2
394.685	19882.7
398.722	18215.6
402.757	15619.9
406.79	12478.6
410.821	9657.01
414.851	6812.98
418.878	4370.27
422.904	2916.88
426.927	1939.7
430.949	1018.7
434.969	717.082
438.987	417.769
443.003	191.812
447.018	32.438
451.03	74.215
455.041	19.874
459.049	38.795
463.056	33.128
467.061	69.188
471.064	34.567
475.065	104.713
479.064	207.421
483.062	86.523
487.057	0.829
491.051	128.086
495.043	308.678
499.032	26.41
503.02	103.729
507.007	0.554
510.991	33.944
514.973	90.756
518.954	105.222
522.933	405.091
526.91	371.835
530.885	227.38
534.858	457.712
538.829	531.82
542.799	710.694
546.766	1175.51
550.732	1838.1
554.696	2641
558.658	3501.53
562.618	4419.45
566.576	5309.88
570.533	6330.82
574.488	6843.61
578.44	6815.38
582.391	6660.86
586.341	6194.18
590.288	5082.94
594.233	4489.3
598.177	3828.39
602.119	3321.86
606.059	2939.97
609.997	2782.56
613.933	3002.84
617.868	3717.65
621.801	4742.59
625.731	5389.35
629.66	5393.58
633.588	5305.96
637.513	5163.73
641.437	5644.37
645.358	5750.98
649.278	5016.7
653.196	4344.99
657.113	3407.13
661.027	2394.7
664.94	1871.23
668.851	1781.05
672.76	1574.48
676.667	1274.68
680.572	944.887
684.476	810.576
688.378	670.742
692.278	548.393
696.176	554.525
700.072	423.146
703.967	178.217
707.86	29.672
711.751	290.389
715.64	37.666
719.527	166.305
723.413	109.367
727.297	91.916
731.179	144.758
735.059	4.092
738.937	56.371
742.814	34.285
746.689	194.459
750.562	109.656
754.433	115.016
758.303	131.777
762.17	50.404
766.036	257.924
769.901	1.957
773.763	30.184
777.624	8.18
781.482	151.979
785.339	48.162
789.195	116.145
793.048	30.021
796.9	102.947
800.75	1.711
804.598	128.66
808.445	68.922
812.289	63.973
816.132	73.002
819.973	83.982
823.813	188.938
827.65	356.818
831.486	363.615
835.32	441.348
839.152	538.016
842.983	706.637
846.812	697.23
850.639	1058.81
854.464	1228.4
858.288	1629.87
862.11	1775.5
865.93	1255.12
869.748	576.518
873.564	628.932
877.379	708.764
881.192	590.199
885.004	597.814
888.813	508.172
892.621	716.33
896.427	742.781
900.232	738.416
904.034	864.74
907.835	892.605
911.634	1090.34
915.432	791.512
919.227	838.785
923.021	997.828
926.813	879.836
930.604	1205.67
934.393	1423.88
938.18	1273.55
941.965	1304.43
945.749	1501.19
949.53	1781.09
953.311	1560.06
957.089	1709.55
960.866	1709.35
964.641	1667.88
968.414	1854.4
972.185	1932.45
975.955	1996.04
979.723	2568.18
983.49	3170.87
987.254	4264.11
991.017	5698.91
994.779	7226.28
998.538	9229.23
1002.3	12932.7
1006.05	14175.9
1009.81	17379.6
1013.56	22820
1017.31	29019.1
1021.06	33680
1024.81	30813.8
1028.55	23800.2
1032.3	16436.4
1036.04	12509.4
1039.78	11258
1043.52	11065.2
1047.26	10713.2
1050.99	10506.9
1054.73	8477.9
1058.46	5910.46
1062.19	4147.31
1065.92	2885.4
1069.65	2149.01
1073.37	1595.2
1077.1	1173.13
1080.82	1357.74
1084.54	1339.93
1088.26	1071.13
1091.97	709.248
1095.69	449.863
1099.4	646.898
1103.12	511.348
1106.83	886.25
1110.54	995.178
1114.24	1211.91
1117.95	1302.99
1121.65	1599.4
1125.35	1775.14
1129.06	2084.17
1132.75	2539.49
1136.45	3258.08
1140.15	4724.9
1143.84	6296.07
1147.53	7877.68
1151.22	8917.72
1154.91	9506.16
1158.6	8498.02
1162.28	6652.27
1165.97	4867.23
1169.65	3313.91
1173.33	2203.15
1177.01	1327.01
1180.69	881.523
1184.36	534.271
1188.04	352.959
1191.71	222.727
1195.38	5.121
1199.05	3.32
1202.71	150.83
1206.38	16.689
1210.04	218.279
1213.71	192.619
1217.37	16.941
1221.03	84.514
1224.68	251.539
1228.34	156.299
1231.99	91.186
1235.65	125.645
1239.3	298.199
1242.95	184.316
1246.59	234.906
1250.24	159.938
1253.88	200.154
1257.53	316.225
1261.17	336.193
1264.81	317.605
1268.45	712.566
1272.08	916.605
1275.72	618.438
1279.35	460.877
1282.98	360.654
1286.61	345.418
1290.24	473.672
1293.87	628.035
1297.49	571.469
1301.11	410.924
1304.73	417.377
1308.36	570.863
1311.97	973.334
1315.59	836.588
1319.2	1070.84
1322.82	887.518
1326.43	791.129
1330.04	231.883
1333.65	75.953
1337.26	31.635
1340.86	36.799
1344.47	28.488
1348.07	10.703
1351.67	73.496
1355.27	28.918
1358.87	80.023
1362.46	83.533
1366.06	290.598
1369.65	119.979
1373.24	224.426
1376.83	228.938
1380.42	404.314
1384	531.529
1387.59	474.742
1391.17	268.178
1394.75	206.029
1398.33	225.492
1401.91	186.734
1405.49	236.27
1409.06	234.49
1412.64	13.379
1416.21	78.73
1419.78	12.605
1423.35	76.336
1426.91	0.666
