Measurement: Raman, 514 nm, ccw, Raman Data Processed
Mineral: Wavellite
Rruff sample: R040176
Ideal chemistry: Al_3_(PO_4_)_2_(OH)_3_5H_2_O
Locality: Montgomery County, Arkansas, USA
Source: University of Arizona Mineral Museum
Description: Pale green radial aggregates
Measured chemistry: (Al_0.88_V_0.03_)_3_(P_0.97_O_4_)_2_((OH)_1.74_F_0.26_)_3_Â·5H_2_O
Pin_id: L00054
Orientation: Laser parallel to -a* (-1 0 0). Fiducial mark perpendicular to laser is parallel to b [0 1 0]
Raman shift (cm-1)	intensity
79.427	0
83.614	442.838
87.798	182.549
91.981	1161.69
96.161	2829.01
100.34	5050.42
104.516	5082.4
108.691	3340.31
112.864	2484.97
117.034	3886.34
121.203	2668.56
125.369	754.316
129.534	476.901
133.696	295.343
137.857	756.777
142.016	694.364
146.172	1060.31
150.327	1491.67
154.48	2453.51
158.63	3984.62
162.779	5741.85
166.926	5568.7
171.07	3166.84
175.213	1125.09
179.354	95.891
183.493	451.45
187.63	368.682
191.765	24.06
195.898	405.987
200.029	1065.01
204.158	2296.12
208.285	4104.2
212.41	5564.05
216.533	5826.72
220.654	5122.82
224.773	4217.86
228.891	2972.05
233.006	1770.37
237.119	1170.81
241.231	991.327
245.34	765.482
249.448	893.871
253.553	1240.66
257.657	1328.09
261.758	1232.96
265.858	1586.57
269.956	2492.74
274.052	3533.78
278.146	4065.29
282.237	4289.68
286.327	4319
290.416	4110.72
294.502	3275.7
298.586	2509.41
302.668	3085.42
306.749	5277.08
310.827	8274.49
314.903	9411.01
318.978	6874.37
323.051	4133.47
327.121	2434.91
331.19	1633.23
335.257	1375.67
339.322	1390.36
343.385	2463.62
347.446	3600.85
351.505	5082.01
355.563	5340.59
359.618	4213.26
363.672	3087.56
367.723	2676.67
371.773	3003.56
375.821	3859.25
379.866	5622.75
383.91	7994.14
387.952	10763.4
391.992	13676.6
396.031	15951.8
400.067	16344.8
404.101	16397.9
408.134	16301.9
412.165	14585.9
416.193	12324.8
420.22	9509.3
424.245	6456.44
428.268	4055.39
432.289	2567.24
436.309	1277.91
440.326	1056.41
444.342	280.778
448.355	77.957
452.367	53.277
456.377	149.396
460.385	167.474
464.391	133.7
468.395	175.967
472.398	67.843
476.398	269.048
480.397	75.885
484.394	77.214
488.389	340.004
492.382	227.288
496.373	425.139
500.362	579.533
504.349	799.512
508.335	972.992
512.319	1119.23
516.3	1461.1
520.28	1855.96
524.259	2154.66
528.235	2720.83
532.209	3310.57
536.182	3969.03
540.152	4468.19
544.121	4977.15
548.088	5056.48
552.053	5110.76
556.017	5041.81
559.978	5190.05
563.938	5276.53
567.895	5655.3
571.851	5608.03
575.805	5461.74
579.758	5327.17
583.708	4980.04
587.657	4784.67
591.603	4093.09
595.548	3982.21
599.491	4007.96
603.432	3981.66
607.372	4269.72
611.309	4712.34
615.245	5290.66
619.179	6166.39
623.111	7106.72
627.041	8074.08
630.97	8436.89
634.896	8416.15
638.821	8862.12
642.744	8780.16
646.665	8435.35
650.584	7569.09
654.502	6499.28
658.418	5152.68
662.331	3876.58
666.244	3087.64
670.154	2359.88
674.062	1852.29
677.969	1593.86
681.874	1269.6
685.777	931.523
689.678	765.62
693.577	605.895
697.475	400.338
701.371	295.933
705.265	402.641
709.157	247.438
713.047	149.197
716.936	104.94
720.823	10.632
724.708	51.153
728.591	71.385
732.472	174.14
736.352	64.829
740.23	142.846
744.106	4.033
747.98	12.566
751.853	149.103
755.723	142.093
759.592	115.448
763.459	60.191
767.325	93.879
771.188	62.371
775.05	57.633
778.91	81.855
782.768	45.378
786.625	164.207
790.479	40.864
794.332	67.772
798.183	40.04
802.033	20.306
805.88	89.941
809.726	53.648
813.57	22.91
817.413	81.803
821.253	158.346
825.092	200.558
828.929	284.459
832.764	365.069
836.598	516.41
840.429	535.5
844.259	552.637
848.088	581.502
851.914	658.556
855.739	802.906
859.562	1133.12
863.383	1150.03
867.203	766.401
871.02	810.963
874.836	761.694
878.65	717.282
882.463	765.919
886.274	863.486
890.083	920.99
893.89	1182.98
897.695	1414.85
901.499	1413.68
905.301	1618.73
909.102	1747.42
912.9	1909.2
916.697	1857.47
920.492	2110.58
924.285	2153.21
928.077	2066.71
931.867	2072.93
935.655	1948.48
939.442	1999.75
943.226	2106.74
947.009	2112.01
950.791	2311.62
954.57	2331.06
958.348	2385.95
962.124	2113.49
965.899	2066.96
969.671	2126.03
973.442	2152.66
977.211	2486.83
980.979	2942.58
984.745	4132.9
988.509	5178.81
992.271	6058.31
996.032	7733.45
999.791	10118.3
1003.55	12311.7
1007.3	14448.9
1011.06	18824.7
1014.81	24240.3
1018.56	29936.6
1022.31	32309.8
1026.06	28375.8
1029.8	20804.6
1033.55	15112.4
1037.29	11449.9
1041.03	9702.19
1044.77	9340.45
1048.5	9503.89
1052.24	8451.72
1055.97	7144.2
1059.7	5878.35
1063.43	5080.11
1067.16	4692.93
1070.89	4095.48
1074.61	3314.77
1078.34	3067.24
1082.06	2645.87
1085.78	2379.36
1089.5	2050.42
1093.21	1799.59
1096.93	1677.31
1100.64	1559.32
1104.35	1902
1108.06	2057.19
1111.77	2321.45
1115.48	2174.48
1119.18	1928.91
1122.89	2551.7
1126.59	2240.83
1130.29	2151.28
1133.99	2253.11
1137.68	3019.47
1141.38	3432.54
1145.07	4495.96
1148.76	5120.88
1152.45	5583.31
1156.14	5362.23
1159.83	4678.4
1163.51	3513.34
1167.19	2573.59
1170.88	1649.73
1174.56	1041.72
1178.23	651.23
1181.91	331.018
1185.59	177.518
1189.26	78.383
1192.93	65.133
1196.6	28.73
1200.27	219.287
1203.94	129.891
1207.6	74.35
1211.27	156.439
1214.93	29.408
1218.59	59.291
1222.25	244.113
1225.9	158.693
1229.56	52.324
1233.21	24.52
1236.86	166.066
1240.51	89.863
1244.16	144.668
1247.81	190.439
1251.45	148.936
1255.1	30.746
1258.74	136.719
1262.38	131.006
1266.02	183.49
1269.66	258.369
1273.29	450.65
1276.93	436.02
1280.56	324.92
1284.19	327.465
1287.82	319.029
1291.45	253.678
1295.07	399.324
1298.7	534.986
1302.32	328.693
1305.94	357.428
1309.56	498.539
1313.18	510.373
1316.8	473.932
1320.41	447.973
1324.02	345.912
1327.63	209.035
1331.24	189.666
1334.85	26.797
1338.46	28.15
1342.06	78.133
1345.67	63.014
1349.27	94.734
1352.87	323.188
1356.47	247.219
1360.07	276.514
1363.66	231.9
1367.25	262.697
1370.85	336.816
1374.44	401.916
1378.03	377.957
1381.61	310.58
1385.2	261.418
1388.78	202.332
1392.37	223.463
1395.95	252.039
1399.53	223.139
1403.1	67.35
1406.68	115.312
1410.26	133.318
1413.83	146.305
1417.4	1.867
