Measurement: Raman, 514 nm, ccw, Raman Data Processed
Mineral: Wavellite
Rruff sample: R040176
Ideal chemistry: Al_3_(PO_4_)_2_(OH)_3_5H_2_O
Locality: Montgomery County, Arkansas, USA
Source: University of Arizona Mineral Museum
Description: Pale green radial aggregates
Measured chemistry: (Al_0.88_V_0.03_)_3_(P_0.97_O_4_)_2_((OH)_1.74_F_0.26_)_3_Â·5H_2_O
Pin_id: M00066
Orientation: Laser parallel to b* (0 1 0). Fiducial mark perpendicular to laser is parallel to c [0 0 1]
Raman shift (cm-1)	intensity
103.124	0
107.3	172.095
111.473	315.779
115.644	2001.32
119.813	2351.48
123.981	1988.66
128.146	1318.08
132.309	844.994
136.47	659.435
140.63	891.567
144.787	1214.19
148.942	869.736
153.096	633.362
157.247	429.7
161.396	559.699
165.544	622.475
169.689	144.325
173.833	175.716
177.974	185.206
182.114	361.73
186.251	1452.98
190.387	2850.11
194.52	2910.19
198.652	1795.2
202.782	1642.08
206.909	2775.96
211.035	3836.56
215.159	2577.3
219.281	1291.04
223.4	487.42
227.518	405.023
231.634	457.168
235.748	426.848
239.86	490.057
243.97	407.782
248.079	398.011
252.185	740.737
256.289	800.96
260.391	901.681
264.492	1259.91
268.59	2025.34
272.687	3232.31
276.781	4280.81
280.874	4391.29
284.964	3848.32
289.053	3560.55
293.14	2828.74
297.225	2006.11
301.308	1753.74
305.389	2324.92
309.468	3777.59
313.545	4901.91
317.62	4419.19
321.693	3031.11
325.765	1713.04
329.834	1261.84
333.902	988.973
337.967	958.401
342.031	1007.26
346.093	1067.2
350.153	1528.19
354.21	2025.51
358.267	2219.17
362.321	2065.14
366.373	1945.4
370.423	2133.96
374.471	2514.78
378.518	3626.82
382.563	4352.08
386.605	5567.56
390.646	7038.35
394.685	8200.47
398.722	9501.97
402.757	10646.7
406.79	11509.9
410.821	11569.3
414.851	11277.4
418.878	10003.8
422.904	9280.7
426.927	8704.82
430.949	8235.29
434.969	6471.36
438.987	4330.78
443.003	2452.51
447.018	1364.49
451.03	788.705
455.041	173.24
459.049	193.018
463.056	147.912
467.061	69.861
471.064	52.717
475.065	297.67
479.064	127.785
483.062	16.477
487.057	130.369
491.051	58.424
495.043	186.551
499.032	66.672
503.02	293.262
507.007	166.051
510.991	316.797
514.973	408.473
518.954	771.072
522.933	840.578
526.91	1359.98
530.885	2244.28
534.858	2872.45
538.829	3554.49
542.799	3932.05
546.766	3925.29
550.732	4076.73
554.696	3534.87
558.658	3593.06
562.618	3481.94
566.576	3528.18
570.533	3214.55
574.488	2944.14
578.44	2551.53
582.391	2515.17
586.341	2329.41
590.288	2932.48
594.233	3109.72
598.177	3512.8
602.119	3873.09
606.059	4864.72
609.997	5394.96
613.933	5742.44
617.868	6387.4
621.801	6469.71
625.731	7059.51
629.66	6789.94
633.588	6982.43
637.513	6577.6
641.437	6480.88
645.358	6009.03
649.278	5806.71
653.196	5558.19
657.113	5275.54
661.027	4469.81
664.94	3944.13
668.851	2955.38
672.76	2351.14
676.667	1893.43
680.572	1356.24
684.476	1345.56
688.378	600.406
692.278	599.768
696.176	278.65
700.072	491.043
703.967	73.059
707.86	200.049
711.751	8.564
715.64	154.031
719.527	259.957
723.413	65.111
727.297	186.201
731.179	175.078
735.059	39.033
738.937	116.053
742.814	27.596
746.689	105.32
750.562	51.721
754.433	163.045
758.303	311.588
762.17	14.412
766.036	317.393
769.901	206.771
773.763	248.469
777.624	84.621
781.482	191.426
785.339	47.008
789.195	242.531
793.048	7.127
796.9	90.676
800.75	9.992
804.598	179.959
808.445	134.436
812.289	92.527
816.132	240.361
819.973	276.996
823.813	471.439
827.65	115.727
831.486	95.057
835.32	159.875
839.152	227.77
842.983	176.564
846.812	180.275
850.639	233.672
854.464	68.832
858.288	103.307
862.11	275.982
865.93	340.139
869.748	265.959
873.564	467.389
877.379	268.971
881.192	509.246
885.004	504.889
888.813	458.379
892.621	567.689
896.427	577.793
900.232	751.051
904.034	858.047
907.835	1022.98
911.634	910.523
915.432	1415.69
919.227	1396.75
923.021	1350.17
926.813	1393.8
930.604	1488.91
934.393	1196.16
938.18	1457.69
941.965	1456.72
945.749	1155.02
949.53	1168.46
953.311	1192.54
957.089	1456.01
960.866	1355.01
964.641	1349.7
968.414	1163.24
972.185	1298.08
975.955	1825.06
979.723	2164.57
983.49	2799.64
987.254	3081.31
991.017	3701.59
994.779	4312.42
998.538	5479.91
1002.3	6628.02
1006.05	9066.71
1009.81	12608
1013.56	17536
1017.31	23000.8
1021.06	26908.3
1024.81	27052.6
1028.55	21609.6
1032.3	15289.8
1036.04	11207.8
1039.78	8596.19
1043.52	7470.77
1047.26	6515.08
1050.99	5762.62
1054.73	5441.11
1058.46	4864.67
1062.19	4558.8
1065.92	4536.13
1069.65	4121.48
1073.37	3646.79
1077.1	3004.99
1080.82	2585.56
1084.54	2542.58
1088.26	2763.16
1091.97	3098.67
1095.69	3717.83
1099.4	4064.41
1103.12	3183.27
1106.83	2634.6
1110.54	2687.23
1114.24	2696.88
1117.95	2609.3
1121.65	3073.61
1125.35	3336.29
1129.06	2583.71
1132.75	3090.63
1136.45	3716.75
1140.15	3935.37
1143.84	4582.04
1147.53	4985.34
1151.22	4383.47
1154.91	3264.76
1158.6	2446.76
1162.28	1552.45
1165.97	1120.12
1169.65	712.809
1173.33	328.594
1177.01	217.561
1180.69	2.482
1184.36	196.428
1188.04	11.135
1191.71	172.84
1195.38	44.844
1199.05	121.389
1202.71	275.219
1206.38	16.203
1210.04	104.764
1213.71	40.887
1217.37	36.633
1221.03	56.549
1224.68	135.994
1228.34	120.428
1231.99	36.773
1235.65	220.211
1239.3	13.758
1242.95	68.285
1246.59	294.014
1250.24	204.412
1253.88	104.689
1257.53	279.633
1261.17	68.201
1264.81	20.664
1268.45	39.182
1272.08	170.736
1275.72	20.172
1279.35	298.939
1282.98	62.922
1286.61	243.934
1290.24	137.953
1293.87	154.186
1297.49	67.588
1301.11	346.238
1304.73	104.123
1308.36	249.152
1311.97	89.355
1315.59	127.688
1319.2	63.156
1322.82	57.207
1326.43	335.303
1330.04	156.072
1333.65	19.539
1337.26	155.727
1340.86	202.174
1344.47	155.059
1348.07	431.008
1351.67	325.389
1355.27	507.092
1358.87	514.607
1362.46	380.396
1366.06	191.352
1369.65	363.963
1373.24	239.164
1376.83	297.305
1380.42	404.283
1384	495.225
1387.59	370.496
1391.17	415.203
1394.75	418.568
1398.33	453.031
1401.91	483.609
1405.49	381.092
1409.06	210.854
1412.64	449.713
1416.21	484.033
1419.78	398.105
1423.35	377.27
1426.91	341.703
1430.48	381.992
1434.05	457.541
1437.61	549.408
1441.17	555.158
1444.73	406.572
1448.29	465.422
1451.84	729.438
1455.4	746.111
1458.95	623.648
1462.5	420.113
1466.05	300.424
1469.6	355.52
1473.15	649.928
1476.69	347.85
1480.24	402.215
1483.78	349.188
1487.32	189.166
1490.86	420.484
1494.39	367.693
1497.93	72.678
1501.46	119.926
1505	247.486
1508.53	4.773
1512.06	234.623
1515.59	167.42
1519.11	67.158
