Measurement: Raman, 514 nm, ccw, Raman Data Processed
Mineral: Wavellite
Rruff sample: R040176
Ideal chemistry: Al_3_(PO_4_)_2_(OH)_3_5H_2_O
Locality: Montgomery County, Arkansas, USA
Source: University of Arizona Mineral Museum
Description: Pale green radial aggregates
Measured chemistry: (Al_0.88_V_0.03_)_3_(P_0.97_O_4_)_2_((OH)_1.74_F_0.26_)_3_Â·5H_2_O
Pin_id: L00054
Orientation: Laser parallel to -a* (-1 0 0). Fiducial mark perpendicular to laser is parallel to b [0 1 0]
Raman shift (cm-1)	intensity
83.614	0
87.798	280.081
91.981	981.892
96.161	1664.61
100.34	2847.24
104.516	4070.25
108.691	5681.01
112.864	6001.89
117.034	8693.21
121.203	6399.59
125.369	3238.04
129.534	2819.64
133.696	1664.76
137.857	1620.31
142.016	1214.11
146.172	699.249
150.327	310.237
154.48	496.078
158.63	936.07
162.779	1074.18
166.926	537.717
171.07	195.947
175.213	26.507
179.354	31.528
183.493	244.905
187.63	937.479
191.765	1609.1
195.898	1361.97
200.029	1136.12
204.158	1474.19
208.285	2144.88
212.41	2055.49
216.533	996.37
220.654	287.151
224.773	25.973
228.891	165.001
233.006	285.939
237.119	289.805
241.231	102.838
245.34	186.743
249.448	473.177
253.553	1216.28
257.657	1974.98
261.758	2835.01
265.858	4290.32
269.956	6482.39
274.052	8043.79
278.146	8130.19
282.237	6868.58
286.327	5346.92
290.416	4196.92
294.502	3054.42
298.586	2235.27
302.668	2244.1
306.749	2850.11
310.827	3879.94
314.903	4030.17
318.978	2989.32
323.051	2252.84
327.121	1554.58
331.19	1152.2
335.257	477.647
339.322	425.352
343.385	516.75
347.446	582.758
351.505	886.836
355.563	1439.03
359.618	2011.3
363.672	2918.64
367.723	3734.01
371.773	4440.38
375.821	5601.75
379.866	7361.13
383.91	9425.51
387.952	12557.8
391.992	16693.3
396.031	21039.3
400.067	25523.1
404.101	29123.5
408.134	32635.2
412.165	33721.1
416.193	30897.2
420.22	25008.8
424.245	17731.7
428.268	11229.9
432.289	7547.36
436.309	4305.3
440.326	2642.43
444.342	1467.87
448.355	796.551
452.367	459.313
456.377	89.22
460.385	32.173
464.391	17.954
468.395	243.414
472.398	1.348
476.398	125.621
480.397	82.391
484.394	3.634
488.389	99.795
492.382	170.08
496.373	325.229
500.362	459.281
504.349	766.378
508.335	1014.38
512.319	1447.21
516.3	2102.84
520.28	2788.25
524.259	3720.43
528.235	5458.38
532.209	7541.09
536.182	10068.5
540.152	11976.7
544.121	12638.7
548.088	12402.4
552.053	11645.9
556.017	11083.4
559.978	10129
563.938	9607.06
567.895	9070.83
571.851	8475.65
575.805	7663.22
579.758	6829.5
583.708	6028.74
587.657	5742.72
591.603	5501.47
595.548	5801.67
599.491	6379.41
603.432	6771.83
607.372	7690.34
611.309	9016.91
615.245	10047.6
619.179	11655.3
623.111	13096.8
627.041	14825.9
630.97	15576.5
634.896	15270.3
638.821	15481.6
642.744	14594.1
646.665	12985
650.584	10988.1
654.502	9103.49
658.418	7356.34
662.331	5596.58
666.244	4360.27
670.154	3406.4
674.062	2755.97
677.969	2173
681.874	1728.47
685.777	1402.39
689.678	1054.77
693.577	855.609
697.475	479.91
701.371	554.678
705.265	405.916
709.157	402.62
713.047	221.737
716.936	60.79
720.823	127.788
724.708	256.782
728.591	110.788
732.472	85.026
736.352	32.478
740.23	124.943
744.106	178.646
747.98	209.932
751.853	46.693
755.723	165.519
759.592	96.729
763.459	62.951
767.325	126.106
771.188	104.765
775.05	9.853
778.91	287.332
782.768	2.558
786.625	54.37
790.479	2.266
794.332	121.787
798.183	78.276
802.033	10.431
805.88	130.871
809.726	86.1
813.57	113.164
817.413	169.082
821.253	273.87
825.092	310.55
828.929	475.137
832.764	521.648
836.598	525.103
840.429	580.557
844.259	820.908
848.088	882.294
851.914	908.692
855.739	994.411
859.562	1247.6
863.383	1307.32
867.203	1222.73
871.02	1084.33
874.836	1200.92
878.65	1389.57
882.463	1602.43
886.274	1644.59
890.083	1870.27
893.89	2204.53
897.695	2599.54
901.499	2804.42
905.301	3250.22
909.102	3600.09
912.9	3984.25
916.697	4207.45
920.492	4627.8
924.285	4450.48
928.077	4252.56
931.867	3970.79
935.655	3760.2
939.442	3573.56
943.226	3576.69
947.009	3540.59
950.791	3885.08
954.57	3960.78
958.348	3663.46
962.124	3453.14
965.899	3187.46
969.671	3100.51
973.442	3116.19
977.211	3504.52
980.979	4027.5
984.745	5169.12
988.509	6448.41
992.271	7542.35
996.032	9542.98
999.791	12359.3
1003.55	14927.3
1007.3	18580.9
1011.06	24374.2
1014.81	31431.3
1018.56	38736
1022.31	41349.6
1026.06	36270.9
1029.8	26879.9
1033.55	18857.3
1037.29	13779.2
1041.03	11027.2
1044.77	9847.97
1048.5	9161.76
1052.24	8410.06
1055.97	8014.5
1059.7	7775.56
1063.43	7725.19
1067.16	7879.48
1070.89	7114.7
1074.61	6030.86
1078.34	5226.65
1082.06	4359.85
1085.78	3923.57
1089.5	3376.39
1093.21	2760.16
1096.93	2560.93
1100.64	2094.81
1104.35	1980.3
1108.06	1769.02
1111.77	1748.7
1115.48	1714.31
1119.18	1496.98
1122.89	1925.56
1126.59	1486.47
1130.29	1568.42
1133.99	1392.53
1137.68	1730.58
1141.38	1645.48
1145.07	1929.9
1148.76	2148.09
1152.45	2301.59
1156.14	1968.59
1159.83	1706.52
1163.51	1131.48
1167.19	831.885
1170.88	399.973
1174.56	326.536
1178.23	152.378
1181.91	108.52
1185.59	17.68
1189.26	18.378
1192.93	123.372
1196.6	152.993
1200.27	138.489
1203.94	137.276
1207.6	86.782
1211.27	181.191
1214.93	14.271
1218.59	136.022
1222.25	96.435
1225.9	40.409
1229.56	36.058
1233.21	70.362
1236.86	245.599
1240.51	217.952
1244.16	16.62
1247.81	48.553
1251.45	120.814
1255.1	232.637
1258.74	264.824
1262.38	182.759
1266.02	271.108
1269.66	127.514
1273.29	397.118
1276.93	312.647
1280.56	186.026
1284.19	420.338
1287.82	294.758
1291.45	366.431
1295.07	429.788
1298.7	383.751
1302.32	364.285
1305.94	461.418
1309.56	508.124
1313.18	446.352
1316.8	552.326
1320.41	466.007
1324.02	368.232
1327.63	339.734
1331.24	272.512
1334.85	128.737
1338.46	107.458
1342.06	55.1
1345.67	88.03
1349.27	148.718
1352.87	144.592
1356.47	225.066
1360.07	231.721
1363.66	229.959
1367.25	226.609
1370.85	222.295
1374.44	179.141
1378.03	150.68
1381.61	249.279
1385.2	219.99
1388.78	164.754
1392.37	180.928
1395.95	97.658
1399.53	109.838
1403.1	221.822
1406.68	57.303
1410.26	44.986
1413.83	126.1
1417.4	73.527
1420.97	72.137
1424.54	103.422
1428.1	123.5
