Measurement: Raman, 514 nm, ccw, Raman Data Processed
Mineral: Wavellite
Rruff sample: R040176
Ideal chemistry: Al_3_(PO_4_)_2_(OH)_3_5H_2_O
Locality: Montgomery County, Arkansas, USA
Source: University of Arizona Mineral Museum
Description: Pale green radial aggregates
Measured chemistry: (Al_0.88_V_0.03_)_3_(P_0.97_O_4_)_2_((OH)_1.74_F_0.26_)_3_Â·5H_2_O
Pin_id: M00066
Orientation: Laser parallel to b* (0 1 0). Fiducial mark perpendicular to laser is parallel to c [0 0 1]
Raman shift (cm-1)	intensity
91.981	0
96.161	1589.47
100.34	4951.7
104.516	3782.19
108.691	2275.09
112.864	3493.94
117.034	6447.59
121.203	6718.96
125.369	4719.31
129.534	2763.77
133.696	1792.61
137.857	2035.47
142.016	2516.91
146.172	2786.48
150.327	2279.03
154.48	1705.29
158.63	1337.84
162.779	652.593
166.926	141.115
171.07	282.966
175.213	465.041
179.354	533.997
183.493	275.724
187.63	679.931
191.765	962.593
195.898	249.489
200.029	589.17
204.158	2458.81
208.285	7769.42
212.41	9385.24
216.533	5097.27
220.654	1959.56
224.773	997.129
228.891	773.873
233.006	799.709
237.119	877.568
241.231	1576.4
245.34	2158.15
249.448	2780.81
253.553	3258.34
257.657	3599.94
261.758	3633.55
265.858	3941.52
269.956	5374.26
274.052	7865.01
278.146	9523.66
282.237	10029.4
286.327	9431.97
290.416	8252.85
294.502	6400.01
298.586	4964.55
302.668	5460.36
306.749	8246.45
310.827	12720
314.903	14935.5
318.978	11524.6
323.051	7830.21
327.121	5361.52
331.19	3963.41
335.257	3097.03
339.322	2672.07
343.385	3167.22
347.446	4376.17
351.505	6202.09
355.563	7475.33
359.618	7087.83
363.672	5714.53
367.723	5077.26
371.773	5107.49
375.821	5918.79
379.866	6656.4
383.91	7980.29
387.952	9029.45
391.992	9270.04
396.031	9644.03
400.067	10479.5
404.101	10863.3
408.134	8990.56
412.165	6244.1
416.193	3749.02
420.22	2398.18
424.245	1721.68
428.268	1553.26
432.289	1169.81
436.309	754.214
440.326	181.462
444.342	20.44
448.355	118.051
452.367	135.499
456.377	20.588
460.385	139.683
464.391	58.622
468.395	49.718
472.398	48.688
476.398	154.521
480.397	19.793
484.394	5.607
488.389	108.718
492.382	93.519
496.373	21.164
500.362	75.434
504.349	21.758
508.335	166.779
512.319	344.791
516.3	308.533
520.28	528.997
524.259	984.252
528.235	1621.19
532.209	2016.93
536.182	2547.3
540.152	2725.6
544.121	2374.34
548.088	2241.78
552.053	1903.65
556.017	1626.74
559.978	1498.33
563.938	1308.83
567.895	1057.79
571.851	1301.88
575.805	1237.43
579.758	1444.52
583.708	1986.87
587.657	2491.27
591.603	3080.6
595.548	3835.33
599.491	4367.35
603.432	5282.36
607.372	5989.74
611.309	6702.21
615.245	7030.9
619.179	7357.78
623.111	7530.55
627.041	6966.63
630.97	6673.87
634.896	5987.07
638.821	4677.74
642.744	3949.28
646.665	3084.54
650.584	2463.54
654.502	2132.47
658.418	1707.26
662.331	1388.78
666.244	1054.82
670.154	1181.32
674.062	945.276
677.969	396.7
681.874	186.589
685.777	288.917
689.678	291.072
693.577	168.289
697.475	101.726
701.371	90.321
705.265	16.854
709.157	163.918
713.047	32.013
716.936	26.273
720.823	22.227
724.708	47.874
728.591	203.804
732.472	49.099
736.352	23.302
740.23	198.749
744.106	82.547
747.98	66.096
751.853	181.852
755.723	189.096
759.592	58.982
763.459	239.642
767.325	415.369
771.188	243.911
775.05	84.431
778.91	370.846
782.768	192.977
786.625	322.812
790.479	191.359
794.332	155.649
798.183	264.73
802.033	258.613
805.88	67.614
809.726	82.03
813.57	94.429
817.413	83.916
821.253	219.094
825.092	84.095
828.929	84.932
832.764	73.616
836.598	126.097
840.429	61.87
844.259	107.249
848.088	153.886
851.914	124.274
855.739	171
859.562	43.797
863.383	83.021
867.203	78.416
871.02	99.234
874.836	12.211
878.65	13.738
882.463	46.957
886.274	56.416
890.083	34.686
893.89	174.727
897.695	33.814
901.499	120.035
905.301	174.01
909.102	370.717
912.9	399.943
916.697	393.748
920.492	456.371
924.285	516.072
928.077	400.939
931.867	642.5
935.655	599.504
939.442	468.816
943.226	545.449
947.009	806.389
950.791	670.641
954.57	603.24
958.348	941.066
962.124	899.396
965.899	1070.54
969.671	1187.02
973.442	1495.85
977.211	1815.05
980.979	2297.63
984.745	2710.6
988.509	3521.95
992.271	4399.37
996.032	5243.69
999.791	6157
1003.55	8443.52
1007.3	11641.4
1011.06	16185.5
1014.81	22452.3
1018.56	29406.5
1022.31	33423.6
1026.06	30529.3
1029.8	23806.1
1033.55	16845.9
1037.29	12825.8
1041.03	10831.2
1044.77	9688.64
1048.5	8411.91
1052.24	8052.07
1055.97	6490.18
1059.7	5794.73
1063.43	5327.82
1067.16	5007.92
1070.89	4573.34
1074.61	3814.44
1078.34	2941.44
1082.06	2651.36
1085.78	2233.78
1089.5	2269.78
1093.21	2197.39
1096.93	2020.83
1100.64	2173
1104.35	1815.77
1108.06	1811.07
1111.77	1685.52
1115.48	1929.28
1119.18	1980.23
1122.89	2748.06
1126.59	2216.66
1130.29	2211.59
1133.99	2181.33
1137.68	2629.93
1141.38	3278.64
1145.07	3737.15
1148.76	3862.62
1152.45	3210.64
1156.14	2501.97
1159.83	1668.52
1163.51	1199.33
1167.19	930.504
1170.88	536.852
1174.56	307.205
1178.23	129.129
1181.91	60.75
1185.59	11.791
1189.26	21.137
1192.93	193.281
1196.6	120.518
1200.27	77.131
1203.94	159.285
1207.6	147.191
1211.27	78.748
1214.93	79.598
1218.59	98.211
1222.25	93.58
1225.9	143.01
1229.56	59.07
1233.21	52.842
1236.86	15.785
1240.51	226.17
1244.16	49.516
1247.81	124.215
1251.45	102.355
1255.1	113.223
1258.74	95.168
1262.38	35.762
1266.02	81.98
1269.66	168.555
1273.29	49.686
1276.93	124.193
1280.56	208.123
1284.19	13.729
1287.82	101.805
1291.45	175.762
1295.07	105.074
1298.7	5.76
1302.32	60.738
1305.94	103.127
1309.56	75.916
1313.18	70.098
1316.8	49.412
1320.41	160.328
1324.02	277.434
1327.63	86.428
1331.24	211.502
1334.85	42.471
1338.46	103.457
1342.06	193.652
1345.67	304.426
1349.27	275.096
1352.87	349.191
1356.47	71.9
1360.07	129.596
1363.66	127.285
1367.25	248.129
1370.85	133.105
1374.44	250.65
1378.03	411.482
1381.61	373.002
1385.2	306.186
1388.78	302.885
1392.37	205.914
1395.95	238.168
1399.53	440.953
1403.1	414.93
1406.68	343.982
1410.26	379.01
1413.83	233.434
1417.4	326.221
1420.97	299.402
1424.54	271.557
1428.1	294.447
1431.67	191.332
1435.23	253.1
1438.8	259.924
1442.36	363.977
1445.91	383.357
1449.47	434.607
1453.03	375.375
1456.58	252.422
1460.13	319.373
1463.68	321.416
1467.23	587.428
1470.78	256.117
1474.33	531.094
1477.87	245.516
1481.42	485.842
1484.96	245.795
1488.5	519.672
1492.04	19.553
1495.57	261.092
1499.11	328.758
1502.64	2.137
1506.17	137.248
