Measurement: Raman, 514 nm, ccw, Raman Data Processed
Mineral: Wavellite
Rruff sample: R040176
Ideal chemistry: Al_3_(PO_4_)_2_(OH)_3_5H_2_O
Locality: Montgomery County, Arkansas, USA
Source: University of Arizona Mineral Museum
Description: Pale green radial aggregates
Measured chemistry: (Al_0.88_V_0.03_)_3_(P_0.97_O_4_)_2_((OH)_1.74_F_0.26_)_3_Â·5H_2_O
Pin_id: S00512
Orientation: Laser parallel to -c* (0 0 -1). Fiducial mark perpendicular to laser is parallel to a [1 0 0]
Raman shift (cm-1)	intensity
91.981	0
96.161	1344.7
100.34	4467.76
104.516	4895.19
108.691	3252.81
112.864	4019.51
117.034	6825.89
121.203	7587.77
125.369	5931.98
129.534	3412.67
133.696	2289.77
137.857	2298.22
142.016	2903.76
146.172	3223.25
150.327	2916.49
154.48	2385.18
158.63	1483.82
162.779	813.077
166.926	79.304
171.07	197.043
175.213	484.548
179.354	639.261
183.493	438.051
187.63	528.474
191.765	887.855
195.898	577.113
200.029	688.184
204.158	2580.25
208.285	7448.38
212.41	11412.9
216.533	8310.68
220.654	3525.58
224.773	1383.53
228.891	785.752
233.006	743.162
237.119	1093.68
241.231	1719.23
245.34	2649.78
249.448	3571.27
253.553	4353.66
257.657	4882.28
261.758	4994.91
265.858	5286.52
269.956	6377.79
274.052	9052.61
278.146	11554.6
282.237	12759.2
286.327	12133.9
290.416	10658.7
294.502	8281.69
298.586	6268.67
302.668	6314.33
306.749	9201.46
310.827	13959.1
314.903	17185.3
318.978	14892.9
323.051	10472.7
327.121	7222.2
331.19	5325.48
335.257	3953.81
339.322	3463.07
343.385	3758.92
347.446	4949.56
351.505	6970.61
355.563	8726.93
359.618	8917.51
363.672	7612.3
367.723	6672.27
371.773	6516.37
375.821	7505.61
379.866	8225.08
383.91	9433.87
387.952	10714
391.992	10897.4
396.031	11400.2
400.067	12058.2
404.101	13068.5
408.134	11238
412.165	8364.83
416.193	5108.78
420.22	2919.91
424.245	1878.47
428.268	1457.12
432.289	1058.71
436.309	699.163
440.326	257.416
444.342	49.434
448.355	22.953
452.367	318.255
456.377	175.05
460.385	105.116
464.391	24.096
468.395	28.362
472.398	29.611
476.398	53.867
480.397	5.239
484.394	17.947
488.389	63.449
492.382	0.168
496.373	24.872
500.362	179.817
504.349	238.972
508.335	316.729
512.319	551.443
516.3	761.733
520.28	1053.59
524.259	1494.39
528.235	2126.8
532.209	2722.67
536.182	3513.97
540.152	3667.13
544.121	3519.75
548.088	3177.11
552.053	2929.19
556.017	2487.33
559.978	2111.38
563.938	1855.91
567.895	1635.21
571.851	1550.31
575.805	1567.35
579.758	1954.56
583.708	2424.26
587.657	3049.87
591.603	4006.18
595.548	4998.04
599.491	5824.92
603.432	6822.89
607.372	7759.51
611.309	8506.6
615.245	9220.99
619.179	9565.95
623.111	9697.47
627.041	8968.55
630.97	8396.62
634.896	7334.87
638.821	5948.42
642.744	4771.9
646.665	3605.34
650.584	2781.07
654.502	2183.78
658.418	1835.06
662.331	1574.78
666.244	1174.09
670.154	991.787
674.062	762.828
677.969	582.268
681.874	234.105
685.777	285.309
689.678	379.866
693.577	118.266
697.475	190.489
701.371	100.455
705.265	41.287
709.157	127.377
713.047	94.076
716.936	139.707
720.823	6.428
724.708	142.094
728.591	53.524
732.472	67.031
736.352	153.391
740.23	164.593
744.106	149.577
747.98	82.027
751.853	210.973
755.723	278.447
759.592	163.484
763.459	314.233
767.325	462.055
771.188	346.047
775.05	291.124
778.91	476.132
782.768	196.929
786.625	423.527
790.479	72.948
794.332	208.239
798.183	244.387
802.033	196.548
805.88	54.668
809.726	25.747
813.57	90.712
817.413	70.47
821.253	37.016
825.092	202.358
828.929	89.515
832.764	88.498
836.598	135.928
840.429	286.58
844.259	91.631
848.088	40.71
851.914	172.848
855.739	102.277
859.562	117.148
863.383	55.157
867.203	80.008
871.02	39.75
874.836	39.093
878.65	6.068
882.463	24.024
886.274	69.032
890.083	125.276
893.89	132.763
897.695	62.21
901.499	38.125
905.301	18.179
909.102	269.42
912.9	193.146
916.697	248.025
920.492	265.081
924.285	303.66
928.077	177.535
931.867	287.743
935.655	438.279
939.442	410.077
943.226	499.83
947.009	669.144
950.791	716.711
954.57	675.532
958.348	998.591
962.124	1070.73
965.899	1297.38
969.671	1487.42
973.442	1844.7
977.211	2181.43
980.979	2682.46
984.745	3153.8
988.509	3856.45
992.271	4973.46
996.032	5903.85
999.791	7170.19
1003.55	9490.2
1007.3	13028
1011.06	18233.5
1014.81	25557
1018.56	34076
1022.31	39466.5
1026.06	37021.6
1029.8	29938.1
1033.55	21510.3
1037.29	16011.1
1041.03	13410.1
1044.77	11772.2
1048.5	10339.8
1052.24	9399.73
1055.97	8118.96
1059.7	7028.02
1063.43	6595.29
1067.16	6459.36
1070.89	5996.71
1074.61	4927.8
1078.34	3725.36
1082.06	3053.41
1085.78	2518.76
1089.5	2217.11
1093.21	2015.96
1096.93	1804.73
1100.64	1888.77
1104.35	1666.26
1108.06	1548.33
1111.77	1560.03
1115.48	1658.38
1119.18	1728.02
1122.89	2305.56
1126.59	2048.03
1130.29	2029.73
1133.99	2214.71
1137.68	2505.39
1141.38	3145.69
1145.07	3260.92
1148.76	3199.85
1152.45	2507.94
1156.14	2014.28
1159.83	1454
1163.51	954.736
1167.19	655.154
1170.88	438.12
1174.56	232.456
1178.23	130.333
1181.91	6.608
1185.59	113.433
1189.26	47.917
1192.93	80.705
1196.6	30.387
1200.27	68.25
1203.94	140.555
1207.6	32.399
1211.27	41.949
1214.93	85.062
1218.59	5.874
1222.25	68.917
1225.9	141.476
1229.56	69.773
1233.21	65.534
1236.86	37.898
1240.51	191.865
1244.16	195.943
1247.81	164.972
1251.45	14.03
1255.1	72.265
1258.74	255.487
1262.38	202.853
1266.02	62.012
1269.66	133.903
1273.29	149.724
1276.93	210.7
1280.56	130.255
1284.19	36.114
1287.82	41.176
1291.45	21.696
1295.07	115.532
1298.7	150.949
1302.32	107.958
1305.94	145.549
1309.56	34.707
1313.18	31.395
1316.8	130.6
1320.41	228.352
1324.02	67.122
1327.63	110.768
1331.24	32.508
1334.85	26.438
1338.46	146.334
1342.06	77.252
1345.67	158.754
1349.27	102.387
1352.87	140.096
1356.47	209.158
1360.07	189.83
1363.66	214.439
1367.25	317.898
1370.85	59.221
1374.44	118.094
1378.03	188.949
1381.61	220.404
1385.2	141.334
1388.78	232.971
1392.37	112.83
1395.95	187.594
1399.53	213.957
1403.1	226.729
1406.68	275.441
1410.26	284.807
1413.83	131.949
1417.4	195.418
1420.97	212.879
1424.54	212.234
1428.1	224.391
1431.67	116.996
1435.23	187.701
1438.8	270.885
1442.36	292.914
1445.91	411.295
1449.47	403.633
1453.03	309.361
1456.58	313.748
1460.13	316.766
1463.68	273.621
1467.23	488.932
1470.78	360.279
1474.33	406.951
1477.87	269.748
1481.42	299.699
1484.96	308.045
1488.5	501.455
1492.04	153.146
1495.57	170.615
1499.11	172.805
1502.64	16.389
1506.17	114.461
1509.71	180.037
1513.23	206.566
1516.76	211.885
1520.29	51.973
