Measurement: Raman, 514 nm, ccw, Raman Data Processed
Mineral: Wavellite
Rruff sample: R040176
Ideal chemistry: Al_3_(PO_4_)_2_(OH)_3_5H_2_O
Locality: Montgomery County, Arkansas, USA
Source: University of Arizona Mineral Museum
Description: Pale green radial aggregates
Measured chemistry: (Al_0.88_V_0.03_)_3_(P_0.97_O_4_)_2_((OH)_1.74_F_0.26_)_3_Â·5H_2_O
Pin_id: M00066
Orientation: Laser parallel to b* (0 1 0). Fiducial mark perpendicular to laser is parallel to c [0 0 1]
Raman shift (cm-1)	intensity
104.516	0
108.691	453.58
112.864	1069.71
117.034	1948.87
121.203	1920.27
125.369	1181.25
129.534	374.086
133.696	133.409
137.857	25.589
142.016	76.582
146.172	115.207
150.327	1.035
154.48	245.14
158.63	551.45
162.779	1020.77
166.926	1035.46
171.07	303.809
175.213	104.298
179.354	40.67
183.493	250.729
187.63	1020.4
191.765	1570.68
195.898	1439.84
200.029	1352.84
204.158	1436.58
208.285	2013.31
212.41	2455.83
216.533	1893.53
220.654	1242.77
224.773	718.146
228.891	418.426
233.006	114.801
237.119	187.717
241.231	206.118
245.34	72.404
249.448	172.425
253.553	395.23
257.657	910.812
261.758	1548.59
265.858	2520.58
269.956	3749.88
274.052	5217.51
278.146	5710.57
282.237	5363.56
286.327	4380.98
290.416	3902.38
294.502	3181.62
298.586	2658.01
302.668	2090.13
306.749	2447.13
310.827	3056.31
314.903	3481.59
318.978	3036.22
323.051	2007.33
327.121	1463.79
331.19	826.621
335.257	497.707
339.322	281.12
343.385	172.164
347.446	188.423
351.505	516.267
355.563	838.271
359.618	1273.43
363.672	1760.71
367.723	2383.13
371.773	3057.65
375.821	4095.26
379.866	5143.93
383.91	6982.65
387.952	9735.41
391.992	12494.2
396.031	15741.1
400.067	18889.3
404.101	21476.9
408.134	23708.2
412.165	25002.7
416.193	24241.1
420.22	20720.7
424.245	16117.5
428.268	12145.5
432.289	8274.77
436.309	5796.35
440.326	3476.15
444.342	2190.13
448.355	1393.23
452.367	662.605
456.377	320.254
460.385	59.04
464.391	7.026
468.395	83.978
472.398	108.368
476.398	46.108
480.397	82.188
484.394	14.55
488.389	6.162
492.382	53.223
496.373	59.471
500.362	464.684
504.349	286.901
508.335	497.081
512.319	881.161
516.3	1051.13
520.28	1555.99
524.259	2431.72
528.235	3605.31
532.209	5103.77
536.182	6881.81
540.152	8266.23
544.121	8863.23
548.088	8870.69
552.053	8880.6
556.017	8625.56
559.978	8586.13
563.938	8068.49
567.895	7603.11
571.851	7328.36
575.805	6477.94
579.758	5860.69
583.708	5411.83
587.657	4851.54
591.603	4601.92
595.548	4623.38
599.491	5114.26
603.432	5592.41
607.372	6603.38
611.309	7451.28
615.245	8425.86
619.179	9420.96
623.111	10249.5
627.041	10566.7
630.97	11306.9
634.896	11747.2
638.821	11254.2
642.744	11238.3
646.665	10407.9
650.584	9330.32
654.502	7754.07
658.418	6363.02
662.331	4919.08
666.244	3977.48
670.154	3126.03
674.062	2636.02
677.969	1884.15
681.874	1453.88
685.777	1200.18
689.678	926.062
693.577	495.529
697.475	650.584
701.371	354.223
705.265	287.446
709.157	44.245
713.047	302.53
716.936	43.373
720.823	150.642
724.708	36.413
728.591	84.361
732.472	54.163
736.352	38.972
740.23	146.037
744.106	26.355
747.98	90.142
751.853	16.521
755.723	197.229
759.592	163.641
763.459	124.371
767.325	243.889
771.188	33.693
775.05	241.98
778.91	5.123
782.768	77.622
786.625	10.364
790.479	101.506
794.332	40.982
798.183	120.244
802.033	19.215
805.88	171.025
809.726	76.696
813.57	92.639
817.413	50.149
821.253	15.774
825.092	134.251
828.929	199.594
832.764	14.816
836.598	104.929
840.429	137.945
844.259	177.881
848.088	159.746
851.914	299.556
855.739	225.32
859.562	212.382
863.383	175.596
867.203	340.119
871.02	298.834
874.836	548.143
878.65	732.643
882.463	707.002
886.274	853.16
890.083	1136.51
893.89	1420.67
897.695	1479.19
901.499	1711.14
905.301	1839.83
909.102	2145.53
912.9	2334.61
916.697	2424.85
920.492	2542.71
924.285	2650.78
928.077	2568.02
931.867	2534.83
935.655	2516.64
939.442	2069.18
943.226	1995.78
947.009	2215.38
950.791	2297.23
954.57	2190.15
958.348	2422.26
962.124	2258.06
965.899	2235.9
969.671	2047.45
973.442	2355.47
977.211	2764.78
980.979	3099.2
984.745	3414.83
988.509	4228.91
992.271	5389.48
996.032	6643.51
999.791	8096.04
1003.55	10730.1
1007.3	14148.7
1011.06	19336.9
1014.81	25964.6
1018.56	33117.9
1022.31	37021.8
1026.06	33697.2
1029.8	25983.3
1033.55	17599
1037.29	12241.1
1041.03	9767.33
1044.77	8034.73
1048.5	6790.79
1052.24	6452.02
1055.97	5748.35
1059.7	5641.41
1063.43	5571.44
1067.16	5523.83
1070.89	5238.77
1074.61	4424.92
1078.34	3367.2
1082.06	3080.14
1085.78	2630.72
1089.5	2576.8
1093.21	2515.53
1096.93	2354.89
1100.64	2172.13
1104.35	1778.34
1108.06	1854.07
1111.77	1638.12
1115.48	1613.77
1119.18	1798.74
1122.89	2387.2
1126.59	1711.06
1130.29	1660.79
1133.99	1671.6
1137.68	1679.65
1141.38	2298.43
1145.07	2765.66
1148.76	2858.11
1152.45	2517.07
1156.14	2027.76
1159.83	1515.73
1163.51	1165.24
1167.19	720.068
1170.88	377.316
1174.56	219.713
1178.23	112.316
1181.91	37.543
1185.59	59.736
1189.26	73.678
1192.93	36.895
1196.6	6.525
1200.27	5.393
1203.94	269.232
1207.6	330.863
1211.27	8.254
1214.93	42.635
1218.59	47.996
1222.25	23.498
1225.9	39.689
1229.56	85.688
1233.21	87.596
1236.86	58.68
1240.51	134.414
1244.16	84.672
1247.81	62.699
1251.45	10.143
1255.1	92.758
1258.74	173.26
1262.38	165.584
1266.02	110.254
1269.66	296.369
1273.29	17.727
1276.93	136.119
1280.56	154.633
1284.19	121.873
1287.82	225.643
1291.45	211.145
1295.07	140.848
1298.7	50.775
1302.32	164.865
1305.94	119.188
1309.56	146.695
1313.18	82.449
1316.8	176.488
1320.41	182.68
1324.02	226.018
1327.63	214.975
1331.24	239.535
1334.85	242.264
1338.46	344.727
1342.06	190.51
1345.67	306.857
1349.27	301.525
1352.87	228.238
1356.47	177.953
1360.07	94.043
1363.66	331.775
1367.25	306.006
1370.85	223.266
1374.44	286.607
1378.03	247.492
1381.61	220.191
1385.2	346.41
1388.78	415.277
1392.37	225.707
1395.95	193.613
1399.53	419.461
1403.1	483.881
1406.68	423.488
1410.26	429.893
1413.83	215.641
1417.4	512.621
1420.97	205.488
1424.54	326.836
1428.1	188.059
1431.67	278.191
1435.23	324.025
1438.8	212.658
1442.36	204.85
1445.91	364.086
1449.47	264.746
1453.03	328.674
1456.58	130.951
1460.13	299.957
1463.68	299.768
1467.23	536.686
1470.78	516.723
1474.33	455.184
1477.87	301.939
1481.42	590.092
1484.96	155.281
1488.5	147.762
1492.04	103.525
1495.57	57.707
1499.11	2.889
1502.64	13.951
1506.17	77.768
1509.71	45.41
1513.23	213.678
1516.76	165.332
1520.29	224.506
1523.81	0
