Measurement: Raman, 514 nm, ccw, Raman Data Processed
Mineral: Wavellite
Rruff sample: R040176
Ideal chemistry: Al_3_(PO_4_)_2_(OH)_3_5H_2_O
Locality: Montgomery County, Arkansas, USA
Source: University of Arizona Mineral Museum
Description: Pale green radial aggregates
Measured chemistry: (Al_0.88_V_0.03_)_3_(P_0.97_O_4_)_2_((OH)_1.74_F_0.26_)_3_Â·5H_2_O
Pin_id: S00512
Orientation: Laser parallel to -c* (0 0 -1). Fiducial mark perpendicular to laser is parallel to a [1 0 0]
Raman shift (cm-1)	intensity
91.981	0
96.161	803.294
100.34	3302.73
104.516	4488.69
108.691	4107.73
112.864	4791.39
117.034	7688.12
121.203	8991.07
125.369	7839.33
129.534	5382.31
133.696	3187.37
137.857	2077.54
142.016	2180.84
146.172	2328.64
150.327	1974.56
154.48	1738.94
158.63	1449.76
162.779	1332.96
166.926	1153.22
171.07	738.229
175.213	393.591
179.354	142.113
183.493	472.934
187.63	312.695
191.765	116.755
195.898	328.546
200.029	73.536
204.158	893.482
208.285	3047.34
212.41	4404.07
216.533	3695.69
220.654	2348.8
224.773	2282.4
228.891	2799.66
233.006	2850.82
237.119	2602.26
241.231	2778.64
245.34	3391.94
249.448	3555.57
253.553	3675.25
257.657	3390.5
261.758	3171.29
265.858	3242.51
269.956	3693.57
274.052	4655.73
278.146	5478.49
282.237	6282.55
286.327	6468.04
290.416	6543.39
294.502	6101.99
298.586	4962.07
302.668	4862.32
306.749	6704.28
310.827	9590.25
314.903	11714.9
318.978	10365.1
323.051	7288.78
327.121	5067.95
331.19	3582.5
335.257	2673.36
339.322	2264.48
343.385	2600.16
347.446	3711.06
351.505	5268.85
355.563	6144.62
359.618	5556.29
363.672	3954.34
367.723	2983.54
371.773	2904.12
375.821	3744.78
379.866	4757.5
383.91	6343.29
387.952	8065.17
391.992	9084.12
396.031	9594.18
400.067	9371.57
404.101	8450.27
408.134	7339.92
412.165	5441.61
416.193	3546.46
420.22	2447.84
424.245	1888.67
428.268	1712.38
432.289	1159.88
436.309	1037.14
440.326	667.628
444.342	638.545
448.355	967.654
452.367	1117.31
456.377	1613.52
460.385	2047.19
464.391	2479.29
468.395	2695.9
472.398	2733.06
476.398	2760.79
480.397	2496.01
484.394	2085.7
488.389	1862.81
492.382	1307.34
496.373	803.264
500.362	450.547
504.349	151.313
508.335	195.856
512.319	210.191
516.3	287.298
520.28	432.654
524.259	218.386
528.235	185.383
532.209	216.201
536.182	446.683
540.152	536.947
544.121	627.94
548.088	698.347
552.053	1057.35
556.017	1093.4
559.978	1326.38
563.938	1525.17
567.895	1786.31
571.851	2162.38
575.805	2274.26
579.758	2492.77
583.708	2645.81
587.657	2967.07
591.603	2893.18
595.548	2908.88
599.491	3218.42
603.432	3273.26
607.372	3819.49
611.309	4156.09
615.245	4618.16
619.179	4716.73
623.111	5125.13
627.041	4778.02
630.97	4779.01
634.896	4809.36
638.821	3876.73
642.744	3725.45
646.665	3251.85
650.584	2607.38
654.502	2095.59
658.418	1724.18
662.331	1412.77
666.244	1014.64
670.154	1107.97
674.062	813.295
677.969	628.508
681.874	297.079
685.777	248.433
689.678	187.213
693.577	122.971
697.475	114.651
701.371	39.168
705.265	62.543
709.157	148.161
713.047	54.397
716.936	27.266
720.823	86.941
724.708	273.224
728.591	200.794
732.472	67.227
736.352	11.517
740.23	94.544
744.106	13.093
747.98	73.445
751.853	78.39
755.723	35.876
759.592	28.658
763.459	118.827
767.325	237.447
771.188	164.223
775.05	188.953
778.91	155.644
782.768	36.34
786.625	212.272
790.479	109.521
794.332	445.894
798.183	506.146
802.033	159.556
805.88	21.641
809.726	203.533
813.57	200.568
817.413	149.229
821.253	190.832
825.092	273.267
828.929	245.637
832.764	239.034
836.598	253.511
840.429	188.843
844.259	203.021
848.088	200.189
851.914	324.132
855.739	325.393
859.562	240.273
863.383	41.988
867.203	173.596
871.02	91.811
874.836	36.456
878.65	7.287
882.463	8.512
886.274	57.797
890.083	91.957
893.89	25.713
897.695	133.266
901.499	28.762
905.301	99.604
909.102	267.217
912.9	355.65
916.697	146.725
920.492	308.914
924.285	380.021
928.077	435.951
931.867	480.52
935.655	632.252
939.442	510.197
943.226	813.59
947.009	832.676
950.791	864.463
954.57	705.088
958.348	883.66
962.124	825.91
965.899	1016.54
969.671	1295.86
973.442	1500.42
977.211	1774.39
980.979	2183.76
984.745	2553.48
988.509	3302.55
992.271	4055.97
996.032	4970.77
999.791	5989.05
1003.55	8151.94
1007.3	10866.5
1011.06	15014.7
1014.81	20473.4
1018.56	26858
1022.31	30823.4
1026.06	28403.7
1029.8	22854.5
1033.55	16308.1
1037.29	12137
1041.03	10305.1
1044.77	9190.03
1048.5	8450.41
1052.24	8020.34
1055.97	6810.9
1059.7	5764.17
1063.43	4762.09
1067.16	4116.58
1070.89	3539.12
1074.61	2780.62
1078.34	2146.77
1082.06	1858.97
1085.78	1535.09
1089.5	1387.68
1093.21	1232.49
1096.93	1076.69
1100.64	1319.25
1104.35	1007.78
1108.06	1190.44
1111.77	1178.34
1115.48	1341.58
1119.18	1517.73
1122.89	1639.2
1126.59	1746.3
1130.29	2314.97
1133.99	2425.17
1137.68	3061.67
1141.38	3812.03
1145.07	4443.2
1148.76	4781.36
1152.45	4794.49
1156.14	4570.41
1159.83	3696.16
1163.51	2819.57
1167.19	1796.27
1170.88	1368.27
1174.56	818.377
1178.23	341.268
1181.91	285.049
1185.59	219.232
1189.26	130.898
1192.93	83.139
1196.6	68.533
1200.27	47.189
1203.94	146.504
1207.6	34.549
1211.27	21.271
1214.93	7.986
1218.59	8.055
1222.25	127.848
1225.9	108.334
1229.56	123.348
1233.21	97.777
1236.86	65.643
1240.51	137.662
1244.16	15.42
1247.81	152.635
1251.45	27.816
1255.1	78.324
1258.74	131.158
1262.38	126.477
1266.02	16.32
1269.66	196.398
1273.29	77.309
1276.93	85.305
1280.56	219.23
1284.19	7.873
1287.82	111.922
1291.45	88.203
1295.07	42.766
1298.7	69.648
1302.32	139.869
1305.94	11.502
1309.56	66.506
1313.18	88.859
1316.8	10.383
1320.41	79.697
1324.02	122.078
1327.63	78.707
1331.24	70.67
1334.85	38.947
1338.46	184.527
1342.06	197.146
1345.67	220.568
1349.27	139.441
1352.87	317.709
1356.47	198.482
1360.07	154.641
1363.66	243.535
1367.25	208.191
1370.85	140.352
1374.44	232.037
1378.03	203.701
1381.61	88.367
1385.2	259.275
1388.78	278.662
1392.37	231.023
1395.95	155.227
1399.53	329.604
1403.1	141.447
1406.68	250.959
1410.26	344.25
1413.83	138.912
1417.4	306.732
1420.97	189.568
1424.54	294.793
1428.1	192.225
1431.67	212.451
1435.23	311.713
1438.8	413.338
1442.36	335.879
1445.91	468.828
1449.47	538.916
1453.03	473.652
1456.58	338.648
1460.13	368.758
1463.68	421.365
1467.23	781.178
1470.78	362.197
1474.33	310.146
1477.87	331.158
1481.42	353.557
1484.96	239.268
1488.5	107.432
1492.04	240.383
1495.57	205.008
1499.11	330.365
1502.64	13.695
1506.17	155.016
1509.71	190.861
1513.23	146.611
1516.76	295.105
1520.29	98.277
