Measurement: Raman, 514 nm, ccw, Raman Data Processed
Mineral: Weloganite
Rruff sample: R050217
Ideal chemistry: Na_2_Sr_3_Zr(CO_3_)_6_3H_2_O
Locality: Francon Quarry, Montréal, Québec, Canada
Source: Marcus Origlieri
Description: Tan colored tapered hexagonal single crystals
Measured chemistry: Na_2.00_(Sr_2.93_Ca_0.07_)_Σ=3_(Zr_0.90_Hf_0.10_)_Σ=1_(CO_3_)_6_·3H_2_O
Pin_id: L00260
Orientation: Laser parallel to a* (1 0 0). Fiducial mark perpendicular to laser is parallel to -c [0 0 -1]
Raman shift (cm-1)	intensity
98.947	0
103.124	123.767
107.3	452.97
111.473	129.315
115.644	254.889
119.813	1178.83
123.981	1984.47
128.146	2449.03
132.309	2891.45
136.47	3593.12
140.63	4315.9
144.787	6308.98
148.942	8353.52
153.096	9681.41
157.247	9813.93
161.396	7743.84
165.544	5699.17
169.689	4374.99
173.833	3356.21
177.974	2456.15
182.114	1934.84
186.251	1239.71
190.387	1467.48
194.52	2440.35
198.652	2763.31
202.782	2938.39
206.909	2830.29
211.035	2515.3
215.159	2321.51
219.281	2999.86
223.4	3591.22
227.518	3628.43
231.634	3143.36
235.748	3108.92
239.86	2855.96
243.97	1778.41
248.079	1027.47
252.185	1077.11
256.289	1692.11
260.391	3014.09
264.492	4123
268.59	4117.34
272.687	3328.29
276.781	2736.01
280.874	2153.18
284.964	1473.17
289.053	760.437
293.14	323.673
297.225	418.712
301.308	736.752
305.389	1605.8
309.468	2827.94
313.545	4458.91
317.62	5771.4
321.693	5766.98
325.765	4265.85
329.834	2861.91
333.902	1798.48
337.967	1092.75
342.031	887.338
346.093	1046.33
350.153	1640.69
354.21	2387.39
358.267	3093.86
362.321	3930.67
366.373	3756.93
370.423	2931.1
374.471	1902.37
378.518	1123.95
382.563	610.928
386.605	164.059
390.646	83.852
394.685	47.307
398.722	173.243
402.757	208.097
406.79	175.37
410.821	74.097
414.851	25.851
418.878	100.916
422.904	201.853
426.927	8.885
430.949	76.092
434.969	129.763
438.987	14.184
443.003	13.597
447.018	40.275
451.03	27.82
455.041	27.952
459.049	302.642
463.056	541.456
467.061	599.62
471.064	467.131
475.065	238.068
479.064	304.619
483.062	309.89
487.057	333.506
491.051	270.979
495.043	376.368
499.032	437.609
503.02	398.737
507.007	400.76
510.991	434.711
514.973	655.495
518.954	588.152
522.933	534.677
526.91	574.112
530.885	669.444
534.858	705.708
538.829	780.903
542.799	721.019
546.766	772.069
550.732	811.31
554.696	742.723
558.658	582.79
562.618	554.933
566.576	662.828
570.533	557.694
574.488	539.165
578.44	403.148
582.391	337.395
586.341	247.485
590.288	383.41
594.233	274.357
598.177	254.918
602.119	263.722
606.059	287.37
609.997	268.975
613.933	107.729
617.868	232.732
621.801	171.942
625.731	399.215
629.66	209.455
633.588	333.135
637.513	260.565
641.437	423.961
645.358	416.632
649.278	442.17
653.196	680.026
657.113	608.755
661.027	695.441
664.94	877.371
668.851	916.389
672.76	1013.32
676.667	1503.54
680.572	1472.67
684.476	1138.12
688.378	632.429
692.278	594.15
696.176	347.688
700.072	460.388
703.967	245.848
707.86	282.328
711.751	125.592
715.64	298.932
719.527	520.522
723.413	492.793
727.297	1263.42
731.179	1381.44
735.059	1377.07
738.937	1286.62
742.814	1061.19
746.689	1575.05
750.562	2361.02
754.433	2189.2
758.303	4699.88
762.17	8562.35
766.036	3394.36
769.901	1114.44
773.763	562.085
777.624	224.467
781.482	264.268
785.339	120.448
789.195	106.059
793.048	99.045
796.9	10.429
800.75	35.698
804.598	120.242
808.445	61.525
812.289	12.685
816.132	100.656
819.973	177.494
823.813	4.74
827.65	80.345
831.486	173.804
835.32	60.39
839.152	51.421
842.983	22.282
846.812	89.164
850.639	130.104
854.464	11.127
858.288	47.238
862.11	344.438
865.93	322.275
869.748	485.674
873.564	251.875
877.379	22.514
881.192	188.275
885.004	83.168
888.813	206.174
892.621	81.295
896.427	2.471
900.232	239.855
904.034	192.287
907.835	276.816
911.634	312.445
915.432	348.178
919.227	260.986
923.021	188.883
926.813	190.885
930.604	213.992
934.393	96.217
938.18	426.523
941.965	308.963
945.749	150.504
949.53	169.375
953.311	278.898
957.089	171.039
960.866	233.625
964.641	282.807
968.414	284.623
972.185	274.992
975.955	397.852
979.723	301.668
983.49	245.314
987.254	330.986
991.017	174.445
994.779	344.662
998.538	311.525
1002.3	33.748
1006.05	300.193
1009.81	402.83
1013.56	507.596
1017.31	437.484
1021.06	441.547
1024.81	463.773
1028.55	501.119
1032.3	382.346
1036.04	673.918
1039.78	607.602
1043.52	800.389
1047.26	1023.22
1050.99	1054.97
1054.73	1829.07
1058.46	3493.47
1062.19	4370.77
1065.92	6395.19
1069.65	9816.12
1073.37	21171.7
1077.1	27498.4
1080.82	37249.2
1084.54	24016.5
1088.26	8267.49
1091.97	3415.54
1095.69	1971.73
1099.4	1239.93
1103.12	1099.81
1106.83	617.947
1110.54	589.93
1114.24	468.939
1117.95	310.248
1121.65	241.439
1125.35	308.836
1129.06	55.514
1132.75	160.904
1136.45	310.648
1140.15	11.549
1143.84	26.326
1147.53	199.693
1151.22	170.527
1154.91	20.648
1158.6	71.57
1162.28	114.193
1165.97	364.826
1169.65	185.207
1173.33	173.578
1177.01	259.93
1180.69	37.613
1184.36	272.066
1188.04	237.256
1191.71	204.414
1195.38	94.541
1199.05	77.641
1202.71	440.703
1206.38	292.75
1210.04	147.768
1213.71	305.768
1217.37	170.783
1221.03	69.807
1224.68	217.803
1228.34	29.24
1231.99	101.67
1235.65	232.572
1239.3	30.453
1242.95	153.084
1246.59	215.596
1250.24	303.873
1253.88	166.984
1257.53	69.162
1261.17	30.932
1264.81	257.963
1268.45	4.26
1272.08	144.275
1275.72	107.619
1279.35	163.797
1282.98	2.039
1286.61	25.246
1290.24	191.092
1293.87	42.674
1297.49	87.496
1301.11	4.555
1304.73	191.219
1308.36	178.861
1311.97	70.615
1315.59	179.736
1319.2	82.014
1322.82	16.236
1326.43	36.543
1330.04	163.801
1333.65	417.932
1337.26	438.076
1340.86	756.268
1344.47	994.541
1348.07	1946.95
1351.67	2707.54
1355.27	2753.49
1358.87	2368.15
1362.46	2078.08
1366.06	2295.47
1369.65	2274.87
1373.24	2213.22
1376.83	2009.1
1380.42	1955.35
1384	1851.28
1387.59	1569.54
1391.17	1602.61
1394.75	1182.48
1398.33	786.111
1401.91	796.285
1405.49	570.852
1409.06	963.506
1412.64	1726.64
1416.21	2316.35
1419.78	2051.11
1423.35	1063.12
1426.91	741.908
1430.48	545.432
1434.05	507.592
1437.61	432.152
1441.17	363.154
1444.73	351.387
1448.29	373.514
1451.84	424.266
1455.4	578.303
1458.95	466.893
1462.5	338.539
1466.05	156.818
1469.6	377.682
1473.15	163.422
1476.69	353.6
1480.24	267.982
1483.78	250.021
1487.32	178.852
1490.86	191.438
1494.39	413.43
1497.93	241.012
1501.46	396.51
1505	433.639
