Measurement: Raman, 514 nm, ccw, Raman Data Processed
Mineral: Weloganite
Rruff sample: R050217
Ideal chemistry: Na_2_Sr_3_Zr(CO_3_)_6_3H_2_O
Locality: Francon Quarry, Montréal, Québec, Canada
Source: Marcus Origlieri
Description: Tan colored tapered hexagonal single crystals
Measured chemistry: Na_2.00_(Sr_2.93_Ca_0.07_)_Σ=3_(Zr_0.90_Hf_0.10_)_Σ=1_(CO_3_)_6_·3H_2_O
Pin_id: L00260
Orientation: Laser parallel to a* (1 0 0). Fiducial mark perpendicular to laser is parallel to -c [0 0 -1]
Raman shift (cm-1)	intensity
97.554	0
101.732	121.809
105.908	577.007
110.082	420.127
114.254	78.866
118.424	167.294
122.592	485.007
126.758	1120.44
130.922	1756.78
135.083	2399.28
139.243	3815.89
143.401	6218.22
147.557	8200.22
151.711	10192.1
155.863	10102.3
160.013	7919.96
164.161	4523.63
168.308	2798.79
172.452	2073.01
176.594	1579.96
180.734	1192.03
184.872	1117.72
189.008	1210.05
193.143	1557.26
197.275	1992.11
201.405	2168.26
205.534	2433.53
209.66	2491.69
213.784	2614.32
217.907	3030.34
222.027	3877.61
226.146	4998.02
230.263	5158.5
234.377	4950.94
238.49	4592.27
242.601	3655.45
246.709	2824.4
250.816	2038.11
254.921	1715.3
259.024	1869.71
263.125	2057.17
267.224	1718.83
271.321	1474.4
275.416	1350.21
279.51	1685.93
283.601	1692.41
287.69	1281.16
291.778	915.431
295.863	689.687
299.947	653.812
304.029	1002.07
308.108	1714.4
312.186	2675.81
316.262	3681.61
320.336	4294.18
324.408	4190.39
328.478	3644.93
332.546	3468.87
336.612	3250.66
340.677	3101.51
344.739	3563.27
348.799	4657.25
352.858	6351.78
356.915	8019.02
360.969	9343.09
365.022	9650.18
369.073	7729.96
373.122	5467.13
377.169	3507.75
381.215	2271.52
385.258	1378
389.299	762.873
393.339	493.101
397.376	349.085
401.412	257.348
405.446	125.768
409.478	94.131
413.508	22.705
417.536	21.19
421.562	60.143
425.586	16.82
429.609	106.531
433.629	48.427
437.648	77.57
441.665	87.984
445.68	45.35
449.693	50.005
453.704	26.831
457.713	2.126
461.721	20.569
465.726	34.953
469.73	90.783
473.731	85.066
477.731	42.397
481.729	156.423
485.725	70.413
489.72	141.637
493.712	110.271
497.703	112.208
501.691	130.524
505.678	196.195
509.663	189.208
513.646	207.558
517.627	239.225
521.607	338.184
525.584	300.499
529.56	333.139
533.534	263.102
537.506	370.381
541.476	339.993
545.444	464.932
549.41	462.303
553.375	451.988
557.337	368.138
561.298	334.418
565.257	355.033
569.214	362.253
573.17	307.564
577.123	251.583
581.075	303.355
585.024	276.432
588.972	325.826
592.918	126.771
596.863	340.825
600.805	273.988
604.746	191.882
608.685	225.001
612.621	154.733
616.557	142.804
620.49	198.415
624.421	206.041
628.351	173.047
632.279	306.767
636.205	201.014
640.129	353.485
644.051	265.619
647.972	319.33
651.89	335.843
655.807	354.752
659.722	488.417
663.636	352.081
667.547	459.543
671.457	572.801
675.365	940.031
679.271	2172.06
683.175	1798.49
687.077	805.935
690.978	647.736
694.877	646.839
698.774	595.285
702.669	409.768
706.562	322.669
710.454	301.415
714.344	247.27
718.232	316.226
722.118	618.454
726.002	1714.89
729.885	2623.56
733.766	2511
737.645	2821.02
741.522	1518.39
745.397	1995.62
749.271	3294.98
753.143	3079.55
757.013	2783.73
760.881	6268.91
764.748	3962.81
768.613	1261.79
772.476	454.927
776.337	280.9
780.196	179.76
784.054	6.175
787.91	7.167
791.764	54.676
795.616	132.413
799.467	37.966
803.316	99.42
807.163	72.628
811.008	36.527
814.851	69.027
818.693	2.338
822.533	47.455
826.371	47.413
830.208	90.261
834.042	45.887
837.875	31.719
841.706	161.266
845.536	141.766
849.363	130.223
853.189	147.682
857.013	271.064
860.836	109.323
864.656	394.581
868.475	524.699
872.292	542.011
876.108	93.323
879.922	189.646
883.733	169.972
887.544	28.707
891.352	7.623
895.159	78.983
898.964	226.38
902.767	150.814
906.568	137.296
910.368	38.815
914.166	66.385
917.962	94.001
921.757	160.721
925.55	226.496
929.341	107.311
933.13	97.12
936.918	16.373
940.703	149.504
944.488	201.147
948.27	135.139
952.051	243.659
955.83	223.058
959.607	155.943
963.383	3.314
967.156	164.425
970.928	103.914
974.699	17.719
978.468	16.591
982.234	125.376
986	234.011
989.763	211.069
993.525	58.273
997.285	100.081
1001.04	299.652
1004.8	248.463
1008.55	128.37
1012.31	302.525
1016.06	161.634
1019.81	143.849
1023.56	262.162
1027.31	433.582
1031.05	433.105
1034.79	565.235
1038.53	530.004
1042.27	529.845
1046.01	771.768
1049.75	1051.82
1053.48	1524.99
1057.22	2929.26
1060.95	3999.64
1064.68	4895.34
1068.4	6902.09
1072.13	12104.7
1075.86	21358.5
1079.58	36811.4
1083.3	42386.5
1087.02	16289.3
1090.74	5717.62
1094.45	2678.08
1098.17	1752.74
1101.88	1059.87
1105.59	847.564
1109.3	515.801
1113.01	466.302
1116.71	403.51
1120.42	337.328
1124.12	168.293
1127.82	180.811
1131.52	237.903
1135.22	174.846
1138.91	197.262
1142.61	23.243
1146.3	585.759
1149.99	665.389
1153.68	193.045
1157.37	6.185
1161.06	239.646
1164.74	210.544
1168.42	251.506
1172.1	168.533
1175.78	125.621
1179.46	111.771
1183.14	264.996
1186.81	159.293
1190.48	153.656
1194.15	146.08
1197.83	258.561
1201.49	70.1
1205.16	122.694
1208.82	15.62
1212.49	234.088
1216.15	143.807
1219.81	116.482
1223.46	82.972
1227.12	117.001
1230.78	94.853
1234.43	159.764
1238.08	173.693
1241.73	233.663
1245.38	2.63
1249.03	91.459
1252.67	103.144
1256.31	23.271
1259.95	81.41
1263.6	89.235
1267.23	20.294
1270.87	81.629
1274.51	5.606
1278.14	142.586
1281.77	181.322
1285.4	135.228
1289.03	144.559
1292.66	179.439
1296.28	38.309
1299.91	64.182
1303.53	70.91
1307.15	123.785
1310.77	300.652
1314.38	41.518
1318	305.381
1321.61	248.262
1325.23	275.17
1328.84	298.109
1332.45	683.09
1336.06	649.111
1339.66	896.18
1343.27	1381.39
1346.87	2056.6
1350.47	3055.59
1354.07	3343.14
1357.67	2916.31
1361.26	2285.33
1364.86	2405.66
1368.45	2551.85
1372.04	2740.77
1375.63	2558.96
1379.22	2198.59
1382.81	2286.45
1386.39	2289.64
1389.98	2065.05
1393.56	1660.75
1397.14	1364.26
1400.72	1154.65
1404.3	1337.4
1407.87	2043.08
1411.45	3591.04
1415.02	5948.98
1418.59	5824.91
1422.16	3601.81
1425.73	1967.69
1429.29	1113.53
1432.86	712.314
1436.42	624.035
1439.98	405.58
1443.54	340.137
1447.1	355.652
1450.66	137.93
1454.21	184.066
1457.77	396.223
1461.32	339.746
1464.87	407.227
1468.42	112.439
1471.96	340.957
1475.51	319.783
1479.06	282.998
1482.6	99.723
1486.14	36.133
1489.68	67.488
1493.22	121.064
1496.75	99.811
1500.29	40.877
1503.82	35.686
1507.35	81.359
1510.88	67.355
1514.41	234.814
1517.94	41.189
1521.46	84.24
