Measurement: Raman, 514 nm, ccw, Raman Data Processed
Mineral: Weloganite
Rruff sample: R050217
Ideal chemistry: Na_2_Sr_3_Zr(CO_3_)_6_3H_2_O
Locality: Francon Quarry, Montréal, Québec, Canada
Source: Marcus Origlieri
Description: Tan colored tapered hexagonal single crystals
Measured chemistry: Na_2.00_(Sr_2.93_Ca_0.07_)_Σ=3_(Zr_0.90_Hf_0.10_)_Σ=1_(CO_3_)_6_·3H_2_O
Pin_id: L00360
Orientation: Laser parallel to c* (0 0 1). Fiducial mark perpendicular to laser is parallel to [1 1 0]
Raman shift (cm-1)	intensity
94.768	0
98.947	465.797
103.124	1005.49
107.3	1816.5
111.473	63.461
115.644	605.382
119.813	2163.88
123.981	2564.77
128.146	2557.07
132.309	3219.48
136.47	3613.31
140.63	4726.66
144.787	7604.49
148.942	9952.64
153.096	10523.1
157.247	10023.5
161.396	7001.64
165.544	5757.61
169.689	4154.73
173.833	2971.18
177.974	2746.71
182.114	1604.47
186.251	674.265
190.387	1765.87
194.52	2956.48
198.652	3063.4
202.782	2776.8
206.909	2486.16
211.035	1904.23
215.159	1956.79
219.281	2955.07
223.4	4158.94
227.518	3372.31
231.634	3186.05
235.748	3646.05
239.86	2790.16
243.97	1464.5
248.079	581.421
252.185	678.253
256.289	1633.46
260.391	3362.72
264.492	4709.99
268.59	4049.87
272.687	3369.63
276.781	2814.26
280.874	1888.27
284.964	867.758
289.053	216.387
293.14	62.276
297.225	12.668
301.308	690.255
305.389	1633.57
309.468	3374.06
313.545	5593.64
317.62	7034.59
321.693	6494.7
325.765	4389.51
329.834	2620.41
333.902	1406.05
337.967	760.456
342.031	628.614
346.093	805.778
350.153	1424.2
354.21	2272.84
358.267	3378.53
362.321	4407.69
366.373	4185.14
370.423	2953.74
374.471	1759.69
378.518	1067.27
382.563	462.611
386.605	149.823
390.646	10.861
394.685	56.541
398.722	150.19
402.757	190.658
406.79	171.006
410.821	78.585
414.851	74.206
418.878	32.984
422.904	120.433
426.927	67.66
430.949	52.495
434.969	2.712
438.987	101.147
443.003	50.51
447.018	144.835
451.03	208.693
455.041	65.172
459.049	158.812
463.056	263.991
467.061	206.834
471.064	246.361
475.065	296.447
479.064	474.405
483.062	413.893
487.057	471.926
491.051	431.572
495.043	483.917
499.032	562.951
503.02	664.742
507.007	569.223
510.991	656.142
514.973	648.088
518.954	712.501
522.933	718.029
526.91	783.989
530.885	854.549
534.858	867.032
538.829	989.175
542.799	1060.07
546.766	996.247
550.732	1067.71
554.696	996.191
558.658	897.862
562.618	854.529
566.576	806.195
570.533	663.147
574.488	545.692
578.44	490.541
582.391	456.677
586.341	408.992
590.288	424.931
594.233	390.72
598.177	312.453
602.119	366.945
606.059	367.027
609.997	368.697
613.933	328.053
617.868	323.575
621.801	329.082
625.731	326.181
629.66	345.316
633.588	409.616
637.513	478.497
641.437	518.306
645.358	554.138
649.278	626.436
653.196	724.008
657.113	678.044
661.027	916.658
664.94	1061.56
668.851	1210.79
672.76	1396.48
676.667	1808.6
680.572	1798.85
684.476	1043.09
688.378	629.763
692.278	566.017
696.176	479.528
700.072	603.638
703.967	552.695
707.86	419.794
711.751	261.094
715.64	364.474
719.527	471.121
723.413	656.152
727.297	1284.22
731.179	1339.34
735.059	1786.35
738.937	1315.9
742.814	1021.69
746.689	1976.8
750.562	2705.27
754.433	2149.08
758.303	5715.44
762.17	10312
766.036	2658.73
769.901	964.142
773.763	537.191
777.624	257.785
781.482	183.49
785.339	119.485
789.195	100.844
793.048	79.614
796.9	4.424
800.75	74.231
804.598	67.933
808.445	12.403
812.289	4.639
816.132	67.314
819.973	21.622
823.813	75.515
827.65	10.305
831.486	89.056
835.32	25.21
839.152	61.545
842.983	59.388
846.812	47.28
850.639	135.243
854.464	129.497
858.288	62.482
862.11	79.775
865.93	344.19
869.748	335.734
873.564	143.402
877.379	101.195
881.192	77.12
885.004	33.188
888.813	121.399
892.621	160.75
896.427	48.238
900.232	175.875
904.034	70.646
907.835	147.547
911.634	70.589
915.432	202.772
919.227	132.094
923.021	127.559
926.813	76.165
930.604	214.91
934.393	139.819
938.18	252.883
941.965	152.085
945.749	161.408
949.53	180.051
953.311	234.549
957.089	258.99
960.866	134.16
964.641	228.626
968.414	249.687
972.185	205.198
975.955	175.022
979.723	188.522
983.49	397.778
987.254	278.784
991.017	152.265
994.779	210.669
998.538	256.915
1002.3	197.152
1006.05	294.663
1009.81	367.407
1013.56	270.366
1017.31	328.582
1021.06	346.682
1024.81	363.692
1028.55	360.562
1032.3	460.613
1036.04	496.862
1039.78	696.302
1043.52	831.929
1047.26	868.383
1050.99	1149.39
1054.73	1787.8
1058.46	3903.18
1062.19	4632.74
1065.92	7308.49
1069.65	10814.2
1073.37	25876.4
1077.1	30442.7
1080.82	42871.2
1084.54	22516.8
1088.26	6927.89
1091.97	2801.93
1095.69	1854.15
1099.4	1062.56
1103.12	831.131
1106.83	515.017
1110.54	484.222
1114.24	368.77
1117.95	334.577
1121.65	272.612
1125.35	262.235
1129.06	19.527
1132.75	211.569
1136.45	301.502
1140.15	73.806
1143.84	102.854
1147.53	184.57
1151.22	68.798
1154.91	39.675
1158.6	42.73
1162.28	117.731
1165.97	161.606
1169.65	215.467
1173.33	56.757
1177.01	150.165
1180.69	41.67
1184.36	144.271
1188.04	169.982
1191.71	186.799
1195.38	123.715
1199.05	109.722
1202.71	114.657
1206.38	130.062
1210.04	155.389
1213.71	155.812
1217.37	111.357
1221.03	145.045
1224.68	67.847
1228.34	61.27
1231.99	4.408
1235.65	62.521
1239.3	41.549
1242.95	94.635
1246.59	145.797
1250.24	193.031
1253.88	150.266
1257.53	147.714
1261.17	20.688
1264.81	101.803
1268.45	63.77
1272.08	25.334
1275.72	21.77
1279.35	63.971
1282.98	59.716
1286.61	3.525
1290.24	59.47
1293.87	3.24
1297.49	111.118
1301.11	9.562
1304.73	155.991
1308.36	132.507
1311.97	19.012
1315.59	194.425
1319.2	64.833
1322.82	40.698
1326.43	323.16
1330.04	250.658
1333.65	359.259
1337.26	443.854
1340.86	743.079
1344.47	1077.8
1348.07	1956.78
1351.67	2900.22
1355.27	2846.21
1358.87	2420.31
1362.46	2176.7
1366.06	2357.39
1369.65	2668.56
1373.24	2505.95
1376.83	2286.51
1380.42	2077.88
1384	2033.3
1387.59	1947.43
1391.17	1791.79
1394.75	1209.19
1398.33	752.465
1401.91	679.438
1405.49	661.559
1409.06	898.918
1412.64	1695.63
1416.21	2167.45
1419.78	1917.68
1423.35	1037.23
1426.91	742.764
1430.48	562.252
1434.05	446.678
1437.61	377.977
1441.17	347.023
1444.73	194.045
1448.29	233.428
1451.84	387.965
1455.4	593.311
1458.95	342.586
1462.5	0.627
1466.05	119.742
1469.6	112.273
1473.15	71.207
1476.69	198.461
1480.24	47.164
1483.78	277.564
1487.32	165.971
1490.86	143.441
1494.39	253.389
1497.93	324.248
1501.46	138.996
1505	258.279
1508.53	236.865
1512.06	147.6
1515.59	22.604
