Measurement: Raman, 514 nm, ccw, Raman Data Processed
Mineral: Weloganite
Rruff sample: R050217
Ideal chemistry: Na_2_Sr_3_Zr(CO_3_)_6_3H_2_O
Locality: Francon Quarry, Montréal, Québec, Canada
Source: Marcus Origlieri
Description: Tan colored tapered hexagonal single crystals
Measured chemistry: Na_2.00_(Sr_2.93_Ca_0.07_)_Σ=3_(Zr_0.90_Hf_0.10_)_Σ=1_(CO_3_)_6_·3H_2_O
Pin_id: L00260
Orientation: Laser parallel to a* (1 0 0). Fiducial mark perpendicular to laser is parallel to -c [0 0 -1]
Raman shift (cm-1)	intensity
97.554	0
101.732	153.023
105.908	722.671
110.082	631.533
114.254	271.592
118.424	1206.18
122.592	2328.02
126.758	3089.72
130.922	3585.51
135.083	3754.56
139.243	4489.76
143.401	5814.93
147.557	7466.85
151.711	8562
155.863	8718.32
160.013	7617.3
164.161	5905.74
168.308	4726.63
172.452	3576.22
176.594	2884.39
180.734	2221.92
184.872	1553.27
189.008	1474.15
193.143	2505.63
197.275	3100.43
201.405	3085.62
205.534	2702.13
209.66	2513.3
213.784	2171.12
217.907	2737.13
222.027	3476.18
226.146	3751.07
230.263	3142.63
234.377	3029.73
238.49	2745.28
242.601	1982.16
246.709	1012.21
250.816	694.868
254.921	1099.43
259.024	2441.74
263.125	3793.75
267.224	4127.59
271.321	3712.74
275.416	3222.37
279.51	2659.53
283.601	1842.23
287.69	915.981
291.778	396.615
295.863	132.304
299.947	595.584
304.029	1526.12
308.108	2969.33
312.186	4852.26
316.262	6525.26
320.336	6716.48
324.408	5770.02
328.478	3664.66
332.546	2315.28
336.612	1304.08
340.677	963.958
344.739	1176.13
348.799	1684.25
352.858	2450.34
356.915	3116.77
360.969	3777.26
365.022	4054.3
369.073	3425.73
373.122	2417.08
377.169	1529.17
381.215	805.387
385.258	337.494
389.299	40.148
393.339	15.52
397.376	60.895
401.412	218.513
405.446	171.245
409.478	109.015
413.508	227.002
417.536	182.213
421.562	153.229
425.586	11.378
429.609	119.694
433.629	106.94
437.648	33.051
441.665	11.64
445.68	19.485
449.693	26.212
453.704	76
457.713	209.223
461.721	395.953
465.726	505.541
469.73	311.644
473.731	398.217
477.731	319.946
481.729	347.688
485.725	358.723
489.72	363.847
493.712	452.804
497.703	366.563
501.691	455.956
505.678	549.072
509.663	538.845
513.646	552.364
517.627	690.543
521.607	769.402
525.584	680.022
529.56	717.351
533.534	687.431
537.506	887.255
541.476	837.832
545.444	827.139
549.41	779.829
553.375	932.778
557.337	857.703
561.298	734.429
565.257	691.178
569.214	734.16
573.17	463.019
577.123	508.817
581.075	498.594
585.024	416.824
588.972	482.746
592.918	243.004
596.863	332.573
600.805	350.162
604.746	275.302
608.685	223.331
612.621	271.959
616.557	216.686
620.49	276.39
624.421	241.911
628.351	524.175
632.279	469.158
636.205	295.721
640.129	449.31
644.051	388.801
647.972	419.543
651.89	469.716
655.807	752.764
659.722	905.799
663.636	1027.17
667.547	1099.72
671.457	1187.65
675.365	1431.4
679.271	1645.4
683.175	1254.65
687.077	891.214
690.978	664.85
694.877	662.959
698.774	331.721
702.669	458.191
706.562	428.532
710.454	491.359
714.344	287.161
718.232	68.506
722.118	437.935
726.002	762.787
729.885	1275.32
733.766	1050.75
737.645	1243.77
741.522	808.668
745.397	1300.23
749.271	1960.76
753.143	2125.93
757.013	3591.92
760.881	9232.1
764.748	6191.66
768.613	1762.98
772.476	636.663
776.337	415.706
780.196	183.163
784.054	9.447
787.91	13.639
791.764	197.525
795.616	57.676
799.467	129.755
803.316	46.411
807.163	85.089
811.008	40.935
814.851	49.089
818.693	45.242
822.533	16.569
826.371	59.351
830.208	70.223
834.042	46.29
837.875	83.635
841.706	171.65
845.536	261.713
849.363	122.861
853.189	280.953
857.013	280.533
860.836	56.076
864.656	361.77
868.475	439.531
872.292	282.137
876.108	147.297
879.922	76.578
883.733	207.996
887.544	67.576
891.352	115.322
895.159	14.773
898.964	335.291
902.767	230.521
906.568	229.926
910.368	209.602
914.166	97.453
917.962	167.467
921.757	239.652
925.55	357.02
929.341	183.547
933.13	77.248
936.918	70.119
940.703	219.24
944.488	77.43
948.27	149.027
952.051	288.008
955.83	303.449
959.607	257.258
963.383	159.146
967.156	257.174
970.928	228.768
974.699	176.246
978.468	184.281
982.234	269.561
986	374.287
989.763	473.547
993.525	212.137
997.285	399.35
1001.04	529.949
1004.8	248.787
1008.55	244.812
1012.31	383.031
1016.06	334.602
1019.81	354.371
1023.56	434.336
1027.31	569.498
1031.05	583.348
1034.79	726.699
1038.53	814.453
1042.27	930.938
1046.01	1019.88
1049.75	1400.19
1053.48	1758.69
1057.22	3413.35
1060.95	4358.19
1064.68	6410.53
1068.4	10016.7
1072.13	19432.5
1075.86	32389
1079.58	35487.7
1083.3	33469.8
1087.02	12611.8
1090.74	4614.91
1094.45	2181.21
1098.17	1408.67
1101.88	905.316
1105.59	899.584
1109.3	572.797
1113.01	293.377
1116.71	363.465
1120.42	217.312
1124.12	180.354
1127.82	305.379
1131.52	316.857
1135.22	80.309
1138.91	200.627
1142.61	22.27
1146.3	41.195
1149.99	85.719
1153.68	266.637
1157.37	23.625
1161.06	32.947
1164.74	176.109
1168.42	180.281
1172.1	119.285
1175.78	164.932
1179.46	191.738
1183.14	208.121
1186.81	32.557
1190.48	250.033
1194.15	105.547
1197.83	349.094
1201.49	92.674
1205.16	300.209
1208.82	7.371
1212.49	99.076
1216.15	259.592
1219.81	264.113
1223.46	37.648
1227.12	140.197
1230.78	222.721
1234.43	85.762
1238.08	235.842
1241.73	203.447
1245.38	66.988
1249.03	13.336
1252.67	64.66
1256.31	43.725
1259.95	44.557
1263.6	171.078
1267.23	106.504
1270.87	27.848
1274.51	11.168
1278.14	117.242
1281.77	174.426
1285.4	139.617
1289.03	159.123
1292.66	14.418
1296.28	170.666
1299.91	162.83
1303.53	97.926
1307.15	194.893
1310.77	183.67
1314.38	15.363
1318	166.977
1321.61	158.535
1325.23	4.973
1328.84	123.451
1332.45	361.859
1336.06	464.256
1339.66	580.648
1343.27	939.055
1346.87	1557.49
1350.47	2263
1354.07	2520.27
1357.67	2453.09
1361.26	2104.16
1364.86	2172.71
1368.45	2421.17
1372.04	2518.9
1375.63	2430.26
1379.22	2005.13
1382.81	1964.93
1386.39	1877.15
1389.98	1530.64
1393.56	1247.58
1397.14	850.838
1400.72	692.119
1404.3	653.074
1407.87	681.068
1411.45	929.238
1415.02	1514.71
1418.59	1614.21
1422.16	973.83
1425.73	553.557
1429.29	598.104
1432.86	397.445
1436.42	518.922
1439.98	309.945
1443.54	306.656
1447.1	324.09
1450.66	156.953
1454.21	284.832
1457.77	447.232
1461.32	470.844
1464.87	525.332
1468.42	128.961
1471.96	431.369
1475.51	358.234
1479.06	329.674
1482.6	284.004
1486.14	325.709
1489.68	166.15
1493.22	486.479
1496.75	323.016
1500.29	17.408
1503.82	121.32
1507.35	130.201
1510.88	69.672
1514.41	196.975
