Measurement: Raman, 514 nm, ccw, Raman Data Processed
Mineral: Weloganite
Rruff sample: R050217
Ideal chemistry: Na_2_Sr_3_Zr(CO_3_)_6_3H_2_O
Locality: Francon Quarry, Montréal, Québec, Canada
Source: Marcus Origlieri
Description: Tan colored tapered hexagonal single crystals
Measured chemistry: Na_2.00_(Sr_2.93_Ca_0.07_)_Σ=3_(Zr_0.90_Hf_0.10_)_Σ=1_(CO_3_)_6_·3H_2_O
Pin_id: L00360
Orientation: Laser parallel to c* (0 0 1). Fiducial mark perpendicular to laser is parallel to [1 1 0]
Raman shift (cm-1)	intensity
89.193	0
93.375	122.975
97.554	55.33
101.732	652.146
105.908	1212.36
110.082	686.323
114.254	24.523
118.424	325.7
122.592	1047.81
126.758	1592.63
130.922	2158.16
135.083	2438.7
139.243	4595.35
143.401	6599.22
147.557	9637.49
151.711	11241.4
155.863	11311.2
160.013	7690.25
164.161	3646.07
168.308	2722.19
172.452	2058.78
176.594	1642.37
180.734	950.794
184.872	885.505
189.008	1061.49
193.143	1568.51
197.275	2078.78
201.405	2304.04
205.534	2456.94
209.66	2145.51
213.784	2278.56
217.907	2898.93
222.027	4067.46
226.146	5623.06
230.263	5837.67
234.377	5452.2
238.49	4955.58
242.601	3468.76
246.709	2644.68
250.816	1615.79
254.921	1487.84
259.024	1735.15
263.125	1717.31
267.224	1313.43
271.321	1073.74
275.416	1525.08
279.51	1749.27
283.601	1489.81
287.69	936.311
291.778	698.152
295.863	337.49
299.947	381.857
304.029	956.193
308.108	1644.19
312.186	2733.65
316.262	3926.24
320.336	4187.01
324.408	3976.12
328.478	3408.62
332.546	3106.17
336.612	2731.98
340.677	2704.71
344.739	3224.59
348.799	4428.37
352.858	5715.67
356.915	7278.95
360.969	9027.94
365.022	9093.62
369.073	6991.44
373.122	4468.29
377.169	2785.51
381.215	1649.99
385.258	1029.1
389.299	535.406
393.339	312.191
397.376	270.594
401.412	98.501
405.446	6.14
409.478	16.032
413.508	4.373
417.536	8.857
421.562	88.615
425.586	53.892
429.609	99.492
433.629	37.811
437.648	62.452
441.665	105.589
445.68	73.17
449.693	80.854
453.704	36.922
457.713	37.019
461.721	41.729
465.726	4.406
469.73	39.822
473.731	106.42
477.731	107.34
481.729	38.172
485.725	179.381
489.72	166.799
493.712	164.343
497.703	133.029
501.691	257.983
505.678	235.237
509.663	289.873
513.646	333.809
517.627	391.976
521.607	406.379
525.584	331.076
529.56	415.025
533.534	396.204
537.506	459.628
541.476	486.293
545.444	574.202
549.41	579.355
553.375	532.759
557.337	531.411
561.298	415.315
565.257	397.502
569.214	516.56
573.17	422.682
577.123	376.862
581.075	358.458
585.024	333.035
588.972	249.158
592.918	261.075
596.863	318.037
600.805	247.87
604.746	218.932
608.685	83.937
612.621	196.288
616.557	121.197
620.49	178.201
624.421	75.261
628.351	208.022
632.279	195.215
636.205	216.698
640.129	297.191
644.051	303.256
647.972	369.956
651.89	382.649
655.807	430.781
659.722	518.472
663.636	431.904
667.547	548.56
671.457	531.387
675.365	1202.45
679.271	2710.17
683.175	1636.46
687.077	769.143
690.978	600.389
694.877	646.815
698.774	656.937
702.669	466.529
706.562	396.943
710.454	341.987
714.344	283.515
718.232	371.175
722.118	694.872
726.002	2171.57
729.885	2501.14
733.766	2798.7
737.645	2657.1
741.522	1545.5
745.397	2458.51
749.271	4267.92
753.143	2741.74
757.013	2572.41
760.881	7092.56
764.748	2928.24
768.613	816.51
772.476	316.217
776.337	233.475
780.196	158.972
784.054	37.118
787.91	5.733
791.764	3.12
795.616	38.771
799.467	6.319
803.316	52.054
807.163	44.028
811.008	81.448
814.851	89.722
818.693	88.376
822.533	27.914
826.371	21.65
830.208	79.489
834.042	27.509
837.875	84.303
841.706	175.006
845.536	126.654
849.363	102.244
853.189	172.796
857.013	214.319
860.836	194.819
864.656	282.31
868.475	620.803
872.292	403.314
876.108	94.839
879.922	22.476
883.733	111.997
887.544	15.354
891.352	18.671
895.159	102.048
898.964	71.822
902.767	114.657
906.568	140.553
910.368	36.535
914.166	106.574
917.962	74.693
921.757	231.923
925.55	166.226
929.341	111.594
933.13	135.74
936.918	103.585
940.703	78.293
944.488	85.325
948.27	134.31
952.051	210.818
955.83	159.783
959.607	186.199
963.383	109.54
967.156	184.236
970.928	176.046
974.699	174.468
978.468	154.966
982.234	51.67
986	199.418
989.763	406.113
993.525	323.061
997.285	192.229
1001.04	327.461
1004.8	294.81
1008.55	352.271
1012.31	380.923
1016.06	366.197
1019.81	344.291
1023.56	492.229
1027.31	468.292
1031.05	504.565
1034.79	640.148
1038.53	619.299
1042.27	723.495
1046.01	940.156
1049.75	1103.94
1053.48	1528.85
1057.22	3170.18
1060.95	4068.32
1064.68	5058.24
1068.4	7077.55
1072.13	12168.1
1075.86	22099.7
1079.58	38053
1083.3	40285.3
1087.02	12863.8
1090.74	4570.93
1094.45	2369.65
1098.17	1482.28
1101.88	1030.53
1105.59	809.539
1109.3	453.489
1113.01	521.829
1116.71	348.128
1120.42	241.75
1124.12	802.616
1127.82	369.93
1131.52	291.889
1135.22	174.283
1138.91	256.782
1142.61	91.382
1146.3	188.163
1149.99	96.182
1153.68	217.09
1157.37	75.093
1161.06	195.188
1164.74	111.346
1168.42	164.568
1172.1	89.991
1175.78	182.369
1179.46	114.811
1183.14	45.277
1186.81	183.828
1190.48	170.469
1194.15	151.197
1197.83	77.662
1201.49	131.917
1205.16	165.901
1208.82	0.068
1212.49	81.038
1216.15	83.198
1219.81	103.417
1223.46	30.281
1227.12	13.062
1230.78	205.482
1234.43	162.963
1238.08	188.471
1241.73	183.007
1245.38	18.444
1249.03	3.098
1252.67	64.556
1256.31	40.959
1259.95	121.453
1263.6	91.831
1267.23	41.756
1270.87	2.551
1274.51	25.073
1278.14	10.3
1281.77	44.696
1285.4	46.129
1289.03	136.591
1292.66	12.957
1296.28	194.507
1299.91	154.004
1303.53	138.533
1307.15	189.019
1310.77	208.028
1314.38	11.636
1318	205.001
1321.61	167.677
1325.23	249.31
1328.84	253.804
1332.45	592.638
1336.06	660.533
1339.66	812.492
1343.27	1246.52
1346.87	1832.46
1350.47	2990.63
1354.07	3263.2
1357.67	2718.01
1361.26	2601.44
1364.86	2650.19
1368.45	2908.44
1372.04	2974.73
1375.63	2848.24
1379.22	2443.26
1382.81	2599.44
1386.39	2757.39
1389.98	2764.46
1393.56	2059.33
1397.14	1556.5
1400.72	1230.19
1404.3	1252.36
1407.87	1900.5
1411.45	3661.23
1415.02	6255.39
1418.59	6085.59
1422.16	3685.3
1425.73	1880.58
1429.29	1132.96
1432.86	889.34
1436.42	613.682
1439.98	393.018
1443.54	459.342
1447.1	375.6
1450.66	229.809
1454.21	315.049
1457.77	305.51
1461.32	488.525
1464.87	424.107
1468.42	173.164
1471.96	242.648
1475.51	186.484
1479.06	194.641
1482.6	81.17
1486.14	132.178
1489.68	135.826
1493.22	166.285
1496.75	288.594
1500.29	3.188
1503.82	88.127
1507.35	134.707
1510.88	149.641
1514.41	98.078
1517.94	110.301
1521.46	137.361
