Measurement: Raman, 514 nm, ccw, Raman Data Processed
Mineral: Weloganite
Rruff sample: R050217
Ideal chemistry: Na_2_Sr_3_Zr(CO_3_)_6_3H_2_O
Locality: Francon Quarry, Montréal, Québec, Canada
Source: Marcus Origlieri
Description: Tan colored tapered hexagonal single crystals
Measured chemistry: Na_2.00_(Sr_2.93_Ca_0.07_)_Σ=3_(Zr_0.90_Hf_0.10_)_Σ=1_(CO_3_)_6_·3H_2_O
Pin_id: L00360
Orientation: Laser parallel to c* (0 0 1). Fiducial mark perpendicular to laser is parallel to [1 1 0]
Raman shift (cm-1)	intensity
91.981	0
96.161	193.99
100.34	855.402
104.516	1753.8
108.691	1698.27
112.864	338.452
117.034	1827.48
121.203	3046.86
125.369	2936.54
129.534	2949.83
133.696	3752.77
137.857	4175.64
142.016	5854.95
146.172	8824
150.327	10651.6
154.48	11671.2
158.63	9883.21
162.779	7164.59
166.926	5843.44
171.07	4287.82
175.213	3524.49
179.354	3089.58
183.493	1535.51
187.63	1183.73
191.765	2436.73
195.898	3468.99
200.029	3306.3
204.158	3032.31
208.285	2706.9
212.41	1948.82
216.533	2523.95
220.654	3845.09
224.773	4408.05
228.891	3549.72
233.006	3609.96
237.119	3785.65
241.231	2643.67
245.34	1362.75
249.448	929.529
253.553	1000.24
257.657	2238.57
261.758	4543.56
265.858	5426.86
269.956	4093.83
274.052	3699.74
278.146	2953.29
282.237	1806.45
286.327	833.051
290.416	299.281
294.502	141.131
298.586	277.057
302.668	959.722
306.749	2212.54
310.827	4058.85
314.903	6559.16
318.978	7738.16
323.051	6304.57
327.121	4097.41
331.19	2398.99
335.257	1427.41
339.322	855.433
343.385	772.165
347.446	1056.24
351.505	1802.32
355.563	2693.1
359.618	3842.68
363.672	4593.12
367.723	3855.11
371.773	2665.47
375.821	1599.45
379.866	866.117
383.91	368.365
387.952	149.085
391.992	146.74
396.031	94.969
400.067	205.856
404.101	242.484
408.134	155.831
412.165	114.815
416.193	107.147
420.22	116.993
424.245	130.06
428.268	18.351
432.289	67.634
436.309	64.25
440.326	26.99
444.342	6.291
448.355	84.972
452.367	107.04
456.377	86.708
460.385	195.771
464.391	223.121
468.395	303.198
472.398	256.206
476.398	307.008
480.397	353.699
484.394	391.833
488.389	408.447
492.382	482.628
496.373	468.466
500.362	642.862
504.349	609.835
508.335	686.412
512.319	685.632
516.3	740.41
520.28	761.179
524.259	807.75
528.235	884.42
532.209	842.754
536.182	894.732
540.152	992.347
544.121	816.616
548.088	911.534
552.053	1106.3
556.017	1007.1
559.978	947.581
563.938	831.217
567.895	749.339
571.851	670.027
575.805	678.971
579.758	564.166
583.708	503.834
587.657	471.229
591.603	446.275
595.548	381.452
599.491	421.425
603.432	268.185
607.372	371.615
611.309	236.34
615.245	367.174
619.179	289.455
623.111	454.978
627.041	279.85
630.97	298.229
634.896	445.783
638.821	407.812
642.744	571.722
646.665	554.16
650.584	583.482
654.502	747.869
658.418	829.471
662.331	952.877
666.244	1120.99
670.154	1368.88
674.062	1607.68
677.969	1940.88
681.874	1432.09
685.777	945.508
689.678	713.188
693.577	456.758
697.475	624.095
701.371	577.482
705.265	504.8
709.157	227.992
713.047	360.849
716.936	419.394
720.823	383.977
724.708	838.2
728.591	1667.38
732.472	1280.52
736.352	1786.52
740.23	1222.19
744.106	1194.73
747.98	2360.22
751.853	2758.39
755.723	2685.35
759.592	8744.3
763.459	7855.15
767.325	2189.37
771.188	778.7
775.05	318.008
778.91	216.421
782.768	38.083
786.625	98.07
790.479	54.157
794.332	6.842
798.183	12.778
802.033	48.155
805.88	205.088
809.726	27.694
813.57	31.363
817.413	19.104
821.253	24.987
825.092	34.019
828.929	47.908
832.764	57.838
836.598	55.814
840.429	61.91
844.259	44.974
848.088	77.931
851.914	128.981
855.739	195.138
859.562	32.411
863.383	158.637
867.203	409.155
871.02	208.812
874.836	79.605
878.65	83.529
882.463	12.59
886.274	18.204
890.083	23.14
893.89	367.638
897.695	70.296
901.499	110.108
905.301	42.079
909.102	139.239
912.9	240.58
916.697	197.083
920.492	162.756
924.285	201.605
928.077	310.619
931.867	256.79
935.655	342.018
939.442	246.688
943.226	212.343
947.009	311.041
950.791	293.17
954.57	107.675
958.348	244.179
962.124	235.072
965.899	252.966
969.671	191.892
973.442	349.212
977.211	182.208
980.979	231.345
984.745	155.611
988.509	224.503
992.271	266.015
996.032	506.982
999.791	211.979
1003.55	512.28
1007.3	394.943
1011.06	363.875
1014.81	372.061
1018.56	403.524
1022.31	422.282
1026.06	658.296
1029.8	733.305
1033.55	754.785
1037.29	752.182
1041.03	947.131
1044.77	1085.31
1048.5	1072.73
1052.24	1631.38
1055.97	2536.27
1059.7	4565.53
1063.43	5434.88
1067.16	8595.46
1070.89	14507.6
1074.61	33255.6
1078.34	31104.9
1082.06	43898.4
1085.78	16191.2
1089.5	5407.14
1093.21	2546.36
1096.93	1490.81
1100.64	1322.51
1104.35	777.549
1108.06	721.944
1111.77	437.912
1115.48	534.351
1119.18	259.166
1122.89	504.73
1126.59	269.535
1130.29	121.13
1133.99	214.663
1137.68	74.504
1141.38	109.274
1145.07	127.544
1148.76	138.612
1152.45	59.187
1156.14	304.385
1159.83	137.121
1163.51	144.036
1167.19	169.283
1170.88	135.791
1174.56	93.256
1178.23	172.498
1181.91	164.65
1185.59	165.65
1189.26	155.641
1192.93	129.855
1196.6	14.211
1200.27	126.703
1203.94	104.66
1207.6	159.016
1211.27	237.824
1214.93	14.23
1218.59	180.904
1222.25	179.219
1225.9	172.666
1229.56	235.236
1233.21	22.898
1236.86	22.631
1240.51	155.443
1244.16	296.01
1247.81	128.305
1251.45	20.725
1255.1	100.266
1258.74	186.338
1262.38	91.436
1266.02	13.424
1269.66	124.225
1273.29	76.982
1276.93	123.674
1280.56	4.35
1284.19	23.939
1287.82	65.799
1291.45	57.531
1295.07	27.805
1298.7	58.801
1302.32	14.354
1305.94	3.094
1309.56	65.537
1313.18	190.975
1316.8	157.465
1320.41	159.963
1324.02	285.363
1327.63	290.033
1331.24	460.633
1334.85	370.293
1338.46	536.334
1342.06	945.119
1345.67	1546.4
1349.27	2241.26
1352.87	3050.74
1356.47	2546.04
1360.07	2213.61
1363.66	2272.39
1367.25	2507.95
1370.85	2556.26
1374.44	2565.04
1378.03	2356.37
1381.61	2058.31
1385.2	2128.06
1388.78	2078.55
1392.37	1533.9
1395.95	1046.2
1399.53	873.742
1403.1	691.713
1406.68	876.537
1410.26	1326.17
1413.83	1958.71
1417.4	2236.87
1420.97	1597.36
1424.54	1050.25
1428.1	570.111
1431.67	415.93
1435.23	311.678
1438.8	286.41
1442.36	191.076
1445.91	349.178
1449.47	387.031
1453.03	290.895
1456.58	271.74
1460.13	216.654
1463.68	271.543
1467.23	342.926
1470.78	238.107
1474.33	403.379
1477.87	45.953
1481.42	391.869
1484.96	246.254
1488.5	43.695
1492.04	60.547
1495.57	262.109
1499.11	307.164
1502.64	66.375
1506.17	157.211
1509.71	111.047
1513.23	235.338
1516.76	189.771
1520.29	65.414
