Measurement: Raman, 514 nm, ccw, Raman Data Processed
Mineral: Whewellite
Rruff sample: R050240
Ideal chemistry: CaC_2_O_4_H_2_O
Locality: Huron River, Milan, Ohio, USA
Source: Marcus Origlieri
Description: White fragment
Measured chemistry: Ca_1.00_C_2_O_4_Â·H_2_O
Pin_id: L01310
Orientation: Laser parallel to (-1 0 -1). Fiducial mark perpendicular to laser is parallel to b [0 1 0]
Raman shift (cm-1)	intensity
107.047	0
111.976	192.378
116.903	726.122
121.827	1837.35
126.749	3633.22
131.668	5845.82
136.585	7513.04
141.5	7002.61
146.412	3855.99
151.321	1346.34
156.229	364.273
161.134	114.996
166.036	16.7168
170.936	183.326
175.834	610.949
180.729	1526.64
185.622	2861.87
190.512	4642.04
195.4	5815.59
200.286	5594.77
205.169	5931.56
210.049	5609.26
214.928	3877.71
219.803	3025.13
224.677	2293.1
229.548	1113.26
234.416	839.241
239.282	738.062
244.146	730.886
249.007	647.081
253.866	497.183
258.722	369.174
263.576	283.812
268.427	168.923
273.276	267.586
278.123	254.132
282.967	235.887
287.809	168.807
292.648	169.497
297.485	28.7812
302.319	71.1543
307.151	72.2637
311.98	67.8115
316.807	86.4141
321.631	37.3662
326.454	62.6377
331.273	9.48828
336.09	11.9229
340.905	16.0088
345.717	21.1953
350.527	118.064
355.334	61.6514
360.139	55.2197
364.941	27.6699
369.741	2.3916
374.538	105.044
379.333	7.42871
384.126	12.6025
388.916	68.0381
393.703	114.377
398.488	167.414
403.271	34.4346
408.051	232.344
412.828	32.0772
417.603	6.94238
422.376	176.432
427.146	154.788
431.914	163.929
436.679	80.7353
441.442	180.643
446.202	184.815
450.96	71.7598
455.715	182.378
460.467	140.481
465.218	100.491
469.965	94.5205
474.711	217.134
479.454	125.639
484.194	236.738
488.932	448.101
493.667	743.225
498.4	947.066
503.13	1189.29
507.858	811.344
512.583	757.852
517.306	779.572
522.026	649.379
526.744	573.307
531.459	384.909
536.172	77.8535
540.882	175.06
545.59	383.595
550.295	44.1143
554.998	126.222
559.698	169.367
564.396	172.818
569.091	275.451
573.784	424.12
578.474	240.195
583.162	715.553
587.847	657.696
592.529	899.354
597.209	865.892
601.887	776.044
606.562	488.062
611.235	330.053
615.905	361.216
620.572	264.503
625.237	364.524
629.9	360.041
634.56	303.577
639.217	322.029
643.872	176.418
648.524	157.832
653.174	114.28
657.821	107.676
662.466	268.003
667.108	129.263
671.748	103.577
676.385	241.883
681.02	194.16
685.652	18.5947
690.281	259.609
694.908	47.7578
699.533	97.5283
704.155	3.85449
708.774	72.6357
713.391	61.9297
718.005	24.5137
722.617	109.955
727.226	77.4766
731.833	66.9356
736.437	21.7207
741.039	91.5068
745.638	38.752
750.234	72.9922
754.828	116.103
759.419	35.9258
764.008	149.681
768.595	348.448
773.178	448.131
777.759	499.922
782.338	498.729
786.914	163.557
791.488	143.432
796.059	119.339
800.627	75.2754
805.193	22.2246
809.756	140.189
814.317	91.1894
818.875	194.277
823.431	115.601
827.984	61.5566
832.534	86.2012
837.082	200.949
841.627	288.74
846.17	225.373
850.71	289.534
855.248	766.273
859.783	1500.24
864.316	1647.78
868.846	1456.04
873.373	1447.76
877.898	1833.18
882.42	2190.7
886.94	2477.96
891.457	3285.55
895.971	3569.88
900.483	1501.01
904.993	675.086
909.5	729.281
914.004	845.598
918.505	1221.03
923.004	1100.58
927.501	1383.28
931.995	1477.14
936.486	1601.15
940.975	1526.38
945.461	1687.7
949.945	1060.15
954.426	542.383
958.904	475.096
963.38	354.602
967.853	100.814
972.324	92.1231
976.792	184.053
981.258	201.238
985.72	46.0977
990.181	135.965
994.639	30.0566
999.094	137.697
1003.55	69.9316
1008	55.7754
1012.44	36.4473
1016.89	155.086
1021.33	180.824
1025.77	83.7305
1030.21	115.019
1034.64	11.4629
1039.07	82.7383
1043.5	159.086
1047.93	78.5977
1052.35	166.215
1056.78	41.0859
1061.19	181.69
1065.61	161.533
1070.02	45.6504
1074.43	41.6406
1078.84	119.201
1083.25	59.2812
1087.65	297.734
1092.05	172.002
1096.45	165.328
1100.85	205.484
1105.24	128.383
1109.63	226.734
1114.02	116.186
1118.4	242.121
1122.78	174.144
1127.16	145.779
1131.54	213.447
1135.92	84.0195
1140.29	17.5176
1144.66	196.406
1149.02	188.647
1153.39	171.935
1157.75	37.1777
1162.11	68.4121
1166.46	189.334
1170.82	106.584
1175.17	120.287
1179.52	217.672
1183.86	215.322
1188.21	134.478
1192.55	140.262
1196.89	210.834
1201.22	299.203
1205.55	192.408
1209.88	465.662
1214.21	86.0254
1218.54	39.5547
1222.86	6.60742
1227.18	306.035
1231.5	110.859
1235.81	210.596
1240.12	82.0215
1244.43	234.879
1248.74	45.9844
1253.04	136.103
1257.34	160.133
1261.64	40.5977
1265.94	54.1816
1270.23	14.3457
1274.52	5.00195
1278.81	195.574
1283.1	121.113
1287.38	22.623
1291.66	54.9707
1295.94	105.227
1300.21	85.7148
1304.48	43.1543
1308.75	24.541
1313.02	71.6914
1317.29	46
1321.55	60.7012
1325.81	41.4824
1330.06	314.432
1334.32	43.498
1338.57	226.906
1342.82	4.32422
1347.06	356.926
1351.31	187.481
1355.55	261.123
1359.79	54.166
1364.02	219.594
1368.26	222.273
1372.49	166.006
1376.71	21.6309
1380.94	143.816
1385.16	199.83
1389.38	317.574
1393.6	644.15
1397.81	615.449
1402.02	434.602
1406.23	427.893
1410.44	580.07
1414.64	716.434
1418.85	587.01
1423.04	640.832
1427.24	750.231
1431.43	952.377
1435.62	960.789
1439.81	1126.82
1444	1521.34
1448.18	1830.9
1452.36	2663.91
1456.54	5470.12
1460.71	11962.8
1464.89	8499.64
1469.06	5578.94
1473.22	6473
1477.39	9429.45
1481.55	18359.3
1485.71	34540.6
1489.86	38788.4
1494.02	19087.5
1498.17	6839.99
1502.32	2956.86
1506.46	1289.27
1510.61	986.766
1514.75	485.246
1518.88	402.32
1523.02	316.418
1527.15	212.43
1531.28	133.213
1535.41	191.164
1539.53	24.1016
1543.66	67.3945
1547.78	104.725
1551.89	218.191
1556.01	202.596
1560.12	331.545
1564.23	304.07
1568.33	426.592
