Measurement: Raman, 514 nm, ccw, Raman Data Processed
Mineral: Whewellite
Rruff sample: R050240
Ideal chemistry: CaC_2_O_4_H_2_O
Locality: Huron River, Milan, Ohio, USA
Source: Marcus Origlieri
Description: White fragment
Measured chemistry: Ca_1.00_C_2_O_4_Â·H_2_O
Pin_id: L00839
Orientation: Laser parallel to c* (0 0 1). Fiducial mark perpendicular to laser is parallel to a [1 0 0]
Raman shift (cm-1)	intensity
107.047	0
111.976	26.5625
116.903	353.556
121.827	1178.56
126.749	2563.05
131.668	4690.01
136.585	7287.1
141.5	7332.05
146.412	3852.58
151.321	1387.69
156.229	605.403
161.134	376.089
166.036	413.349
170.936	354.482
175.834	662.037
180.729	1204.66
185.622	2373.04
190.512	4434.82
195.4	5199.48
200.286	4878.57
205.169	5454.39
210.049	4536.73
214.928	3188.59
219.803	2448.52
224.677	1929.55
229.548	914.465
234.416	838.622
239.282	645.968
244.146	881.968
249.007	837.776
253.866	751.063
258.722	534.051
263.576	225.49
268.427	346.313
273.276	577.065
278.123	523.663
282.967	467.975
287.809	276.195
292.648	184.722
297.485	81.4736
302.319	52.0068
307.151	50.9756
311.98	71.5586
316.807	8.22559
321.631	53.2803
326.454	44.6143
331.273	264.008
336.09	58.0938
340.905	50.0215
345.717	270.042
350.527	215.094
355.334	102.129
360.139	52.583
364.941	48.8857
369.741	42.3516
374.538	88.7754
379.333	60.0303
384.126	18.1523
388.916	2.77148
393.703	16.1484
398.488	26.0264
403.271	110.939
408.051	85.7607
412.828	12.706
417.603	89.4717
422.376	45.4238
427.146	6.27051
431.914	24.2812
436.679	157.434
441.442	173.078
446.202	66.5303
450.96	169.969
455.715	81.3584
460.467	23.5352
465.218	127.795
469.965	121.502
474.711	119.394
479.454	163.219
484.194	72.8398
488.932	286.027
493.667	531.195
498.4	798.41
503.13	928.711
507.858	811.336
512.583	628.506
517.306	998.689
522.026	957.25
526.744	748.174
531.459	380.031
536.172	317.076
540.882	191.99
545.59	148.932
550.295	62.6016
554.998	81.1387
559.698	6.55469
564.396	312.049
569.091	352.756
573.784	101.65
578.474	400.69
583.162	465.865
587.847	696.223
592.529	836.473
597.209	688.555
601.887	560.854
606.562	584.311
611.235	341.613
615.905	301.344
620.572	280.432
625.237	173.93
629.9	258.223
634.56	262.523
639.217	225.289
643.872	181.652
648.524	251.045
653.174	333.746
657.821	345.795
662.466	206.008
667.108	182.68
671.748	176.182
676.385	188.553
681.02	76.7988
685.652	199.486
690.281	3.29102
694.908	219.404
699.533	74.6367
704.155	234.502
708.774	36.3535
713.391	143.178
718.005	163.027
722.617	68.7559
727.226	118.449
731.833	224.207
736.437	125.975
741.039	70.7188
745.638	133.478
750.234	12.2422
754.828	137.682
759.419	173.91
764.008	65.7598
768.595	134.592
773.178	15.5859
777.759	568.178
782.338	381.621
786.914	237.678
791.488	68.6231
796.059	142.873
800.627	97.0195
805.193	50.0234
809.756	170.096
814.317	56.8926
818.875	82.6992
823.431	139.459
827.984	329.731
832.534	145.488
837.082	14.7715
841.627	183.672
846.17	221.727
850.71	407.951
855.248	627.607
859.783	953.289
864.316	1460.23
868.846	1229.13
873.373	1188.52
877.898	1307.51
882.42	1626.15
886.94	1778.47
891.457	2484.37
895.971	3701.06
900.483	1430.64
904.993	714.621
909.5	601.246
914.004	755.41
918.505	803.652
923.004	999.99
927.501	944.469
931.995	1232.91
936.486	1094.67
940.975	1259.78
945.461	1083.93
949.945	787.049
954.426	569.373
958.904	357.359
963.38	279.44
967.853	164.18
972.324	91.5078
976.792	101.748
981.258	166.19
985.72	95.707
990.181	13.3887
994.639	132.275
999.094	156.893
1003.55	157.961
1008	268.121
1012.44	164.447
1016.89	368.883
1021.33	129.412
1025.77	140.949
1030.21	168.592
1034.64	114.209
1039.07	194.807
1043.5	123.664
1047.93	111.856
1052.35	137.16
1056.78	174.402
1061.19	131.76
1065.61	132.746
1070.02	244.174
1074.43	199.484
1078.84	145.656
1083.25	382.242
1087.65	606.928
1092.05	247.537
1096.45	130.516
1100.85	206.619
1105.24	64.9277
1109.63	173.482
1114.02	168.834
1118.4	258.031
1122.78	267.426
1127.16	177.688
1131.54	65.5781
1135.92	93.5273
1140.29	178.109
1144.66	151.742
1149.02	303.902
1153.39	25.6191
1157.75	30.1523
1162.11	230.231
1166.46	86.8926
1170.82	307.746
1175.17	225.455
1179.52	337.172
1183.86	6.94531
1188.21	449.238
1192.55	352.977
1196.89	193.785
1201.22	48.584
1205.55	159.924
1209.88	183.424
1214.21	289.082
1218.54	24.8164
1222.86	145.535
1227.18	78.2207
1231.5	195.566
1235.81	0.332031
1240.12	287.348
1244.43	335.047
1248.74	222.898
1253.04	433.799
1257.34	53.6328
1261.64	89.8477
1265.94	122.703
1270.23	76.6309
1274.52	267.623
1278.81	79.6621
1283.1	129.793
1287.38	84.084
1291.66	157.402
1295.94	153.289
1300.21	257.768
1304.48	36.6426
1308.75	28.4512
1313.02	182.094
1317.29	111.629
1321.55	299.072
1325.81	184.166
1330.06	167.242
1334.32	301.678
1338.57	1.49805
1342.82	207.898
1347.06	178.262
1351.31	117.965
1355.55	131.592
1359.79	30.7266
1364.02	97.8301
1368.26	71.6856
1372.49	324.801
1376.71	224.121
1380.94	162.631
1385.16	483.537
1389.38	204.377
1393.6	556.533
1397.81	554.938
1402.02	656.633
1406.23	599.055
1410.44	788.414
1414.64	298.039
1418.85	318.994
1423.04	811.719
1427.24	742.074
1431.43	784.102
1435.62	884.852
1439.81	935.644
1444	1488.07
1448.18	1701.04
1452.36	2334.24
1456.54	4754.36
1460.71	12490.3
1464.89	8168.9
1469.06	4560.44
1473.22	4753.92
1477.39	6915.77
1481.55	12334.4
1485.71	24355.5
1489.86	28974.1
1494.02	13431.2
1498.17	4895.87
1502.32	2475.64
1506.46	1230.61
1510.61	952.914
1514.75	748.863
1518.88	542.953
1523.02	318.617
1527.15	283.723
1531.28	289.359
1535.41	183.789
1539.53	314.492
1543.66	502.301
1547.78	100.086
1551.89	313.508
1556.01	108.301
1560.12	227.949
1564.23	340.512
1568.33	118.566
