Measurement: Raman, 514 nm, ccw, Raman Data Processed
Mineral: Whewellite
Rruff sample: R050240
Ideal chemistry: CaC_2_O_4_H_2_O
Locality: Huron River, Milan, Ohio, USA
Source: Marcus Origlieri
Description: White fragment
Measured chemistry: Ca_1.00_C_2_O_4_Â·H_2_O
Pin_id: L01310
Orientation: Laser parallel to (-1 0 -1). Fiducial mark perpendicular to laser is parallel to b [0 1 0]
Raman shift (cm-1)	intensity
108.28	0
113.208	100.903
118.134	1222.45
123.058	3213.78
127.979	6764.15
132.898	10604.5
137.814	11664.3
142.728	8697.92
147.639	4081.9
152.549	1304.3
157.455	190.966
162.359	61.8789
167.261	54.9756
172.161	312.733
177.058	1044.5
181.952	2812.55
186.845	5235.66
191.734	7946.6
196.622	9406.01
201.507	10395
206.389	11387.8
211.269	9942.66
216.147	7478.86
221.022	6394.09
225.895	4623.62
230.765	2707.2
235.633	2699.57
240.498	3492.94
245.361	4405.82
250.222	4546.48
255.08	2877.27
259.936	1465.26
264.789	821.808
269.64	751.597
274.488	785.423
279.334	530.056
284.178	416.201
289.019	371.821
293.857	259.363
298.693	255.793
303.527	75.8672
308.358	93.4629
313.187	74.4258
318.013	31.9941
322.837	47.3877
327.659	24.9346
332.478	40.3447
337.294	20.5439
342.108	2.26562
346.92	60.1318
351.729	1.66504
356.535	66.2451
361.34	41.6074
366.141	11.1172
370.94	48.6582
375.737	14.8613
380.531	104.898
385.323	163.092
390.113	117.436
394.9	173.276
399.684	175.548
404.466	134.393
409.245	222.841
414.022	166.807
418.797	177.256
423.569	102.176
428.338	199.562
433.105	64.4258
437.87	310.731
442.632	171.501
447.391	316.743
452.149	428.907
456.903	379.242
461.655	428.767
466.405	391.971
471.152	492.871
475.897	533.475
480.639	822.158
485.378	1269.71
490.116	2566.81
494.85	4892.7
499.582	7146.28
504.312	7008.03
509.039	4385.75
513.764	3067.01
518.486	3241.09
523.206	2656.8
527.923	1583.95
532.638	894.955
537.35	459.587
542.059	374.498
546.766	270.76
551.471	224.049
556.173	256.522
560.873	384.129
565.57	397.577
570.264	667.627
574.957	1020.95
579.646	1392.68
584.333	1903.25
589.018	2984.06
593.7	3512.51
598.379	3083.26
603.056	1913.42
607.73	1185.45
612.402	610.675
617.072	498.483
621.739	474.54
626.403	284.023
631.065	287.711
635.724	88.6191
640.381	186.848
645.035	237.059
649.687	175.186
654.336	319.606
658.983	204.984
663.627	108.336
668.268	229.986
672.907	100.332
677.544	101.751
682.178	100.406
686.809	186.319
691.438	40.9287
696.065	76.5059
700.688	18.957
705.31	53.5039
709.929	44.873
714.545	55.165
719.158	140.41
723.77	135.572
728.378	89.5615
732.984	17.5371
737.588	0.080078
742.189	58.5566
746.787	88.9981
751.383	107.951
755.976	66.583
760.567	90.5166
765.155	159.585
769.741	11.6279
774.324	191.356
778.904	233.613
783.482	274.558
788.058	211.467
792.631	56.6562
797.201	104.967
801.769	69.5508
806.334	59.9102
810.897	87.4297
815.457	124.643
820.014	77.8135
824.569	65.9482
829.122	97.9482
833.671	115.276
838.219	95.418
842.763	82.4375
847.306	854.114
851.845	509.629
856.382	1304.71
860.917	2755.43
865.448	3118.46
869.978	2000.33
874.505	1681.66
879.029	2022.07
883.55	2796.52
888.069	5741.94
892.586	11800.7
897.1	13468.5
901.611	2576.45
906.12	999.563
910.626	721.788
915.129	970.113
919.63	1053.54
924.129	1305.08
928.625	1426.99
933.118	1583.04
937.609	1811.29
942.097	1709.61
946.582	1627.9
951.065	1203.41
955.546	743.938
960.023	575.334
964.499	377.137
968.971	201.102
973.441	116.201
977.909	115.463
982.374	83.9121
986.836	172.522
991.295	215.277
995.753	203.275
1000.21	62.7812
1004.66	117.537
1009.11	209.576
1013.55	65.7188
1018	55.7207
1022.44	133.109
1026.88	36.8516
1031.32	131.529
1035.75	88.7891
1040.18	152.451
1044.61	183.699
1049.04	86.8457
1053.46	156.213
1057.88	168.42
1062.3	217.738
1066.71	28.1523
1071.13	165.629
1075.54	302.185
1079.94	266.887
1084.35	214.264
1088.75	337.193
1093.15	225.199
1097.55	25.7305
1101.94	122.42
1106.34	94.6406
1110.73	14.2559
1115.11	288.232
1119.5	302.131
1123.88	268.522
1128.26	223.721
1132.63	275.676
1137.01	57.6094
1141.38	129.144
1145.75	28.7754
1150.12	0.84375
1154.48	3.89258
1158.84	19.9453
1163.2	92.5449
1167.55	93.8613
1171.91	175.223
1176.26	276.865
1180.61	160.549
1184.95	149.695
1189.29	205.975
1193.63	310.074
1197.97	43.2988
1202.31	109.545
1206.64	92.25
1210.97	276.094
1215.29	108.033
1219.62	254.484
1223.94	143.465
1228.26	166.746
1232.57	106.68
1236.89	256.969
1241.2	85.1973
1245.51	242.197
1249.81	106.133
1254.12	36.0039
1258.42	19.3457
1262.72	86.8086
1267.01	131.789
1271.3	119.66
1275.59	246.441
1279.88	103.836
1284.17	16.1348
1288.45	181.258
1292.73	182.764
1297.01	203.174
1301.28	37.6016
1305.55	82.9863
1309.82	29.3086
1314.09	1.5918
1318.35	20.8262
1322.61	73.1113
1326.87	123.441
1331.13	202.731
1335.38	79.9824
1339.63	296.18
1343.88	56.7363
1348.12	86.8203
1352.37	113.906
1356.61	87.9824
1360.85	219.092
1365.08	250.215
1369.31	203.394
1373.54	91.6445
1377.77	349.971
1381.99	453.6
1386.22	664.393
1390.43	1140.2
1394.65	1549.45
1398.87	1218.06
1403.08	833.787
1407.29	1022.29
1411.49	570.981
1415.69	736.25
1419.89	730.504
1424.09	662.769
1428.29	632.225
1432.48	975.414
1436.67	1158.6
1440.86	1713.89
1445.04	2635.69
1449.23	3476.67
1453.4	5902.62
1457.58	20848.4
1461.76	38403.5
1465.93	15124.4
1470.1	6330.5
1474.26	5987.1
1478.43	8822.98
1482.59	16872.6
1486.75	30062.8
1490.9	26989.6
1495.06	11131.9
1499.21	4110.47
1503.35	1888.29
1507.5	1215.54
1511.64	761.08
1515.78	229.459
1519.92	521.111
1524.05	53.0957
1528.18	377.338
1532.31	210.947
1536.44	286.135
1540.56	12.6562
1544.69	130.217
1548.8	138.34
1552.92	310.56
1557.03	79.8379
1561.14	156.834
1565.25	17.373
1569.36	148.26
