Measurement: Raman, 514 nm, ccw, Raman Data Processed
Mineral: Whewellite
Rruff sample: R050240
Ideal chemistry: CaC_2_O_4_H_2_O
Locality: Huron River, Milan, Ohio, USA
Source: Marcus Origlieri
Description: White fragment
Measured chemistry: Ca_1.00_C_2_O_4_Â·H_2_O
Pin_id: L01310
Orientation: Laser parallel to (-1 0 -1). Fiducial mark perpendicular to laser is parallel to b [0 1 0]
Raman shift (cm-1)	intensity
108.28	0
113.208	215.185
118.134	1316.35
123.058	3437.2
127.979	6091.91
132.898	8728.92
137.814	8515.15
142.728	5916.74
147.639	2597.64
152.549	847.256
157.455	140.718
162.359	24.9961
167.261	10.418
172.161	298.644
177.058	958.438
181.952	2645.77
186.845	4506.41
191.734	6565.17
196.622	7961.55
201.507	8516.76
206.389	9108.78
211.269	7808.6
216.147	5855.12
221.022	5169.98
225.895	3852.71
230.765	2015.39
235.633	1372.88
240.498	1709.37
245.361	1903.89
250.222	1729.15
255.08	1135.69
259.936	692.519
264.789	249.777
269.64	113.346
274.488	321.142
279.334	159.994
284.178	172.448
289.019	230.226
293.857	202.319
298.693	124.326
303.527	80.1318
308.358	54.8672
313.187	122.838
318.013	39.8935
322.837	37.1504
327.659	6.10742
332.478	29.4121
337.294	14.3271
342.108	87.4863
346.92	16.0889
351.729	3.99512
356.535	107.836
361.34	29.6543
366.141	71.0088
370.94	211.975
375.737	196.773
380.531	278.789
385.323	160.61
390.113	89.0527
394.9	286.062
399.684	209.595
404.466	167.831
409.245	111.189
414.022	176.184
418.797	185.23
423.569	133.903
428.338	205.131
433.105	250.859
437.87	189.083
442.632	282.861
447.391	284.257
452.149	228.013
456.903	266.258
461.655	339.44
466.405	384.918
471.152	285.818
475.897	298.816
480.639	525.216
485.378	692.643
490.116	1639.15
494.85	3200.02
499.582	4426.46
504.312	3929.22
509.039	2250.87
513.764	1564.1
518.486	1101.73
523.206	904.091
527.923	659.765
532.638	380.507
537.35	175.643
542.059	102.957
546.766	167.952
551.471	105.93
556.173	188.345
560.873	177.232
565.57	215.989
570.264	454.618
574.957	368.388
579.646	649.195
584.333	921.97
589.018	1375.86
593.7	1434.83
598.379	1408.08
603.056	919.152
607.73	458.333
612.402	384.103
617.072	302.649
621.739	237.23
626.403	104.547
631.065	291.275
635.724	111.157
640.381	256.084
645.035	6.85352
649.687	215.376
654.336	121.583
658.983	14.9658
663.627	114.185
668.268	207.51
672.907	238.364
677.544	57.8857
682.178	141.53
686.809	125.627
691.438	118.712
696.065	11.2451
700.688	252.731
705.31	10.5273
709.929	129.243
714.545	26.9668
719.158	168.675
723.77	84.6982
728.378	9.29004
732.984	186.082
737.588	137.263
742.189	109.189
746.787	132.102
751.383	40.9463
755.976	38.669
760.567	7.65332
765.155	74.9062
769.741	68.4033
774.324	100.886
778.904	428.353
783.482	81.6006
788.058	98.041
792.631	147.122
797.201	36.3145
801.769	22.0498
806.334	53.7129
810.897	83.3916
815.457	30.4951
820.014	233.603
824.569	83.7188
829.122	234.782
833.671	9.68945
838.219	108.793
842.763	239.494
847.306	245.685
851.845	474.003
856.382	1150.92
860.917	2253.45
865.448	2002.16
869.978	1523.75
874.505	1449.1
879.029	1843.81
883.55	2262.58
888.069	4048.95
892.586	6803.9
897.1	6741.95
901.611	1521.59
906.12	543.869
910.626	697.25
915.129	827.803
919.63	931.463
924.129	878.894
928.625	1133.19
933.118	1091.86
937.609	1292.99
942.097	1353.85
946.582	867.238
951.065	860.801
955.546	569.537
960.023	293.393
964.499	217.365
968.971	63.4844
973.441	40.7383
977.909	140.658
982.374	116.266
986.836	18.9863
991.295	129.834
995.753	127.189
1000.21	70.6035
1004.66	121.141
1009.11	170.938
1013.55	2.92578
1018	283.057
1022.44	81.3516
1026.88	117.412
1031.32	239.106
1035.75	190.217
1040.18	83.2891
1044.61	247.996
1049.04	211.143
1053.46	81.0625
1057.88	240.541
1062.3	4.74805
1066.71	252.346
1071.13	69.0527
1075.54	148.58
1079.94	137.934
1084.35	252.033
1088.75	156.742
1093.15	62.4922
1097.55	98.2812
1101.94	123.156
1106.34	80.0508
1110.73	111.91
1115.11	260.682
1119.5	322.473
1123.88	510.342
1128.26	236.85
1132.63	189.522
1137.01	212.371
1141.38	89.0293
1145.75	126.68
1150.12	163.127
1154.48	145.736
1158.84	175.752
1163.2	150.15
1167.55	20.3105
1171.91	256.644
1176.26	230.281
1180.61	130.815
1184.95	201.625
1189.29	122.318
1193.63	277.834
1197.97	18.6621
1202.31	39.3984
1206.64	63.0918
1210.97	158.996
1215.29	341.426
1219.62	73.7129
1223.94	141.959
1228.26	162.154
1232.57	242.647
1236.89	276.277
1241.2	258.873
1245.51	67.8867
1249.81	98.8672
1254.12	126.775
1258.42	120.18
1262.72	51.6504
1267.01	178.1
1271.3	114.518
1275.59	0.816406
1279.88	146.107
1284.17	102.939
1288.45	65.0606
1292.73	31.9941
1297.01	165.664
1301.28	101.816
1305.55	18.3203
1309.82	87.3887
1314.09	61.6992
1318.35	117.541
1322.61	270.606
1326.87	215.254
1331.13	187.133
1335.38	179.268
1339.63	226.699
1343.88	89.3906
1348.12	21.5488
1352.37	95.7617
1356.61	74.9668
1360.85	156.305
1365.08	249.652
1369.31	180.172
1373.54	207.82
1377.77	362.576
1381.99	417.369
1386.22	498.697
1390.43	1785.86
1394.65	823.172
1398.87	673.787
1403.08	642.463
1407.29	791.908
1411.49	587.289
1415.69	710.916
1419.89	895.488
1424.09	644.117
1428.29	939.844
1432.48	944.988
1436.67	1031.99
1440.86	1391.74
1445.04	1891.92
1449.23	2283.95
1453.4	4152.33
1457.58	12004
1461.76	19306.1
1465.93	8770.27
1470.1	5502.98
1474.26	6499.56
1478.43	9746.54
1482.59	19356.2
1486.75	33552.3
1490.9	30074.8
1495.06	12203.7
1499.21	4562.98
1503.35	2357.48
1507.5	1122.91
1511.64	833.986
1515.78	497.832
1519.92	539.779
1524.05	87.1387
1528.18	352.785
1532.31	246.893
1536.44	208.746
1540.56	238.803
1544.69	126.586
1548.8	110.756
1552.92	408.213
1557.03	48.248
1561.14	242.525
1565.25	5.77344
1569.36	152.56
