Measurement: Raman, 514 nm, ccw, Raman Data Processed
Mineral: Whewellite
Rruff sample: R050240
Ideal chemistry: CaC_2_O_4_H_2_O
Locality: Huron River, Milan, Ohio, USA
Source: Marcus Origlieri
Description: White fragment
Measured chemistry: Ca_1.00_C_2_O_4_Â·H_2_O
Pin_id: L01615
Orientation: Laser parallel to -a* (-1 0 0). Fiducial mark perpendicular to laser is parallel to b [0 1 0]
Raman shift (cm-1)	intensity
87.308	0
92.246	38.2517
97.182	25.5864
102.116	225.042
107.047	672.157
111.976	1210.07
116.903	2733
121.827	5901.96
126.749	10542.5
131.668	18957.8
136.585	27785.7
141.5	22598.2
146.412	9386.52
151.321	3506.66
156.229	1614.75
161.134	1036.35
166.036	976.727
170.936	1506.48
175.834	2688.27
180.729	4777.27
185.622	9155.55
190.512	15526.2
195.4	13676.2
200.286	11391.2
205.169	11876.5
210.049	8651.25
214.928	5505.13
219.803	3377.17
224.677	2127.18
229.548	1303.71
234.416	1337.89
239.282	1245.82
244.146	1169.14
249.007	1053.58
253.866	893.438
258.722	954.899
263.576	978.926
268.427	1208.14
273.276	1410.71
278.123	1263.66
282.967	828.657
287.809	458.428
292.648	207.038
297.485	83.6148
302.319	79.3154
307.151	29.877
311.98	13.7639
316.807	11.0032
321.631	27.4827
326.454	65.1458
331.273	58.1553
336.09	70.6602
340.905	45.5505
345.717	2.12793
350.527	19.2314
355.334	48.2568
360.139	22.6836
364.941	25.2244
369.741	1.54224
374.538	26.0713
379.333	2.63916
384.126	69.155
388.916	66.969
393.703	35.5999
398.488	35.012
403.271	56.1728
408.051	70.0847
412.828	133.727
417.603	132.104
422.376	99.2498
427.146	49.7869
431.914	81.6716
436.679	102.993
441.442	117.127
446.202	62.0303
450.96	105.761
455.715	125.797
460.467	158.951
465.218	168.723
469.965	157.546
474.711	209.315
479.454	219.226
484.194	263.438
488.932	593.718
493.667	1124.59
498.4	2036.38
503.13	1822.32
507.858	1257.4
512.583	1242.44
517.306	1697.53
522.026	1475.9
526.744	936.344
531.459	481.708
536.172	374.592
540.882	311.153
545.59	247.754
550.295	276.46
554.998	321.622
559.698	361.526
564.396	412.75
569.091	540.5
573.784	681.656
578.474	875.679
583.162	1279.52
587.847	1613.17
592.529	1890.57
597.209	1925.87
601.887	1460.15
606.562	1184.97
611.235	865.206
615.905	656.813
620.572	524.115
625.237	375.323
629.9	347.82
634.56	344.272
639.217	337.805
643.872	210.485
648.524	200.225
653.174	252.026
657.821	186.835
662.466	227.66
667.108	157.522
671.748	156.349
676.385	114.504
681.02	85.2822
685.652	120.03
690.281	61.7353
694.908	18.4004
699.533	21.9898
704.155	24.478
708.774	16.9021
713.391	4.5791
718.005	19.7046
722.617	71.147
727.226	8.1687
731.833	17.3892
736.437	8.78613
741.039	8.15479
745.638	3.59375
750.234	49.4929
754.828	12.5383
759.419	95.343
764.008	156.177
768.595	189.986
773.178	374.785
777.759	396.577
782.338	336.361
786.914	232.135
791.488	117.899
796.059	61.6821
800.627	37.4636
805.193	46.2419
809.756	19.9831
814.317	19.7517
818.875	3.4729
823.431	82.1963
827.984	67.9248
832.534	85.062
837.082	198.919
841.627	360.229
846.17	449.928
850.71	547.281
855.248	1103.33
859.783	2613.5
864.316	3372.76
868.846	2360.33
873.373	2363.36
877.898	3097.75
882.42	3792.8
886.94	3920.52
891.457	5209.69
895.971	5189.28
900.483	1829.29
904.993	1371.11
909.5	1448.03
914.004	1864.33
918.505	2044.43
923.004	2376.62
927.501	2704.42
931.995	3206.01
936.486	3406.66
940.975	3597.23
945.461	3253.03
949.945	2315.35
954.426	1597.2
958.904	1052.15
963.38	847.188
967.853	512.414
972.324	368.71
976.792	207.363
981.258	163.722
985.72	70.5107
990.181	75.5693
994.639	42.8081
999.094	91.3096
1003.55	81.9394
1008	9.82031
1012.44	18.2002
1016.89	87.8506
1021.33	0.010254
1025.77	44.8892
1030.21	33.7353
1034.64	121.501
1039.07	30.0561
1043.5	42.2031
1047.93	45.8384
1052.35	82.854
1056.78	89.6851
1061.19	35.543
1065.61	15.958
1070.02	78.9717
1074.43	35.812
1078.84	55.8374
1083.25	230.831
1087.65	318.754
1092.05	76.6914
1096.45	23.2891
1100.85	50.6377
1105.24	3.39356
1109.63	53.1421
1114.02	63.9043
1118.4	103.566
1122.78	223.445
1127.16	30.585
1131.54	34.6045
1135.92	92.7695
1140.29	3.60498
1144.66	79.5928
1149.02	55.3042
1153.39	116.121
1157.75	81.0478
1162.11	104.484
1166.46	62.0586
1170.82	4.10498
1175.17	52.9199
1179.52	21.1865
1183.86	93.4673
1188.21	117.303
1192.55	56.2363
1196.89	131.337
1201.22	102.346
1205.55	73.4048
1209.88	37.2148
1214.21	133.756
1218.54	123.194
1222.86	92.5127
1227.18	84.3657
1231.5	61.7647
1235.81	16.6538
1240.12	195.498
1244.43	8.99023
1248.74	81.9575
1253.04	172.67
1257.34	168.154
1261.64	41.3267
1265.94	30.334
1270.23	110.911
1274.52	12.5454
1278.81	54.9233
1283.1	51.1509
1287.38	45.6309
1291.66	50.5356
1295.94	79.5068
1300.21	149.478
1304.48	6.95654
1308.75	7.04834
1313.02	8.01709
1317.29	108.899
1321.55	43.706
1325.81	103.851
1330.06	9.2832
1334.32	11.7446
1338.57	1.26221
1342.82	21.8223
1347.06	28.2432
1351.31	5.43359
1355.55	27.7895
1359.79	1.79688
1364.02	65.9273
1368.26	65.1025
1372.49	132.735
1376.71	158.05
1380.94	188.223
1385.16	440.057
1389.38	703.844
1393.6	978.433
1397.81	839.543
1402.02	841.26
1406.23	732.222
1410.44	663.039
1414.64	868.779
1418.85	769.024
1423.04	778.273
1427.24	857.193
1431.43	1102.98
1435.62	1253.1
1439.81	1618.92
1444	2054.08
1448.18	2577.39
1452.36	3680.02
1456.54	9114.13
1460.71	22034.5
1464.89	11530
1469.06	7329.74
1473.22	8599.52
1477.39	12645.7
1481.55	24423.1
1485.71	47740.8
1489.86	52061.8
1494.02	21986.1
1498.17	7999.7
1502.32	3415.49
1506.46	2007.68
1510.61	1118.1
1514.75	718.922
1518.88	554.778
1523.02	391.749
1527.15	217.678
1531.28	204.691
1535.41	79.0024
1539.53	52.9526
1543.66	113.069
1547.78	45.9477
1551.89	82.3047
1556.01	48.4434
1560.12	27.4072
1564.23	45.814
1568.33	0.493164
