Measurement: Raman, 514 nm, ccw, Raman Data Processed
Mineral: Whewellite
Rruff sample: R050240
Ideal chemistry: CaC_2_O_4_H_2_O
Locality: Huron River, Milan, Ohio, USA
Source: Marcus Origlieri
Description: White fragment
Measured chemistry: Ca_1.00_C_2_O_4_Â·H_2_O
Pin_id: L01615
Orientation: Laser parallel to -a* (-1 0 0). Fiducial mark perpendicular to laser is parallel to b [0 1 0]
Raman shift (cm-1)	intensity
100.883	0
105.815	164.487
110.744	447.918
115.671	1652.68
120.596	3944.01
125.519	8332.23
130.439	14378.3
135.356	16572.7
140.271	13695.2
145.184	8640.99
150.094	4116.17
155.002	1454.12
159.908	429.776
164.811	45.4219
169.711	230.626
174.61	1291.73
179.505	2945.78
184.399	5508.21
189.29	9546.01
194.178	12811.7
199.064	18913.7
203.948	27102
208.829	25556.5
213.708	17428.5
218.585	12578.2
223.459	8471.48
228.33	4143.83
233.199	2740.36
238.066	2764.47
242.93	3173.54
247.792	3522.79
252.651	2450.83
257.508	1469
262.363	1118.11
267.215	815.77
272.064	711.275
276.912	622.902
281.756	327.547
286.598	301.805
291.438	452.858
296.276	570.592
301.111	384.87
305.943	70.4834
310.773	2.8374
315.601	85.6841
320.426	108.788
325.248	130.538
330.068	14.2539
334.886	59.7368
339.701	153.116
344.514	54.2549
349.324	1.08496
354.132	32.3325
358.938	99.5737
363.741	45.9136
368.541	15.4937
373.339	108.734
378.135	242.045
382.928	195.752
387.718	209.329
392.506	241.008
397.292	197.045
402.075	187.238
406.856	295.641
411.634	377.179
416.41	412.749
421.183	440.295
425.954	428.801
430.722	552.255
435.488	536.662
440.251	749.043
445.012	807.472
449.77	918.97
454.526	969.925
459.28	1174.5
464.03	1395.12
468.779	1750.05
473.525	2553.25
478.268	3823.39
483.009	6262.96
487.747	12248.4
492.483	26822.3
497.217	50402.6
501.948	55906.3
506.676	31608.1
511.402	13241
516.125	6619.4
520.846	4107.52
525.565	2539.6
530.281	1588.92
534.994	1097.55
539.705	675.034
544.413	696.241
549.119	527.072
553.822	557.168
558.523	391.339
563.222	435.872
567.917	517.59
572.611	659.394
577.302	940.427
581.99	1398.02
586.676	1837.99
591.359	2481.7
596.04	2468.63
600.718	1677.9
605.394	957.273
610.067	628.16
614.737	420.685
619.406	306.282
624.071	211.144
628.734	231.815
633.395	167.924
638.053	130.102
642.708	215.192
647.361	132.48
652.012	48.0713
656.66	52.2412
661.305	56.3623
665.948	62.043
670.588	37.581
675.226	114.776
679.861	133.199
684.494	2.57617
689.124	40.419
693.752	27.6602
698.377	147.339
702.999	62.2109
707.619	120.763
712.237	22.2578
716.852	51.6904
721.464	42.9932
726.074	65.0068
730.681	61.168
735.286	38.4355
739.888	53.1377
744.488	51.0273
749.085	10.8535
753.68	2.46094
758.272	28.0234
762.861	33.665
767.448	181.552
772.033	264.713
776.614	322.817
781.194	334.864
785.77	182.848
790.345	18.5713
794.916	118.111
799.485	3.7207
804.052	46.6719
808.616	5.61621
813.177	86.5957
817.736	26.8037
822.292	21.0137
826.846	84.6885
831.397	37.4697
835.945	8.69824
840.491	272.139
845.035	342.952
849.576	648.736
854.114	1101.3
858.65	3986.84
863.183	7614.82
867.713	4718.53
872.241	2298.21
876.767	2403.84
881.29	3857.05
885.81	7109.29
890.328	22068.3
894.843	43787.8
899.356	11360
903.866	2225.62
908.373	1341.44
912.878	1384.46
917.38	1493.6
921.88	1596.82
926.377	1779.12
930.872	2008.09
935.364	2330.19
939.853	2381.9
944.34	2229.62
948.824	1685.29
953.306	1159.38
957.785	876.2
962.261	558.217
966.735	328.336
971.207	253.634
975.675	246.296
980.141	139.623
984.605	169.076
989.066	116.653
993.524	139.409
997.98	63.4385
1002.43	211.001
1006.88	144.309
1011.33	249.825
1015.78	215.894
1020.22	279.387
1024.66	229.062
1029.1	351.94
1033.53	403.953
1037.97	390.099
1042.4	216.773
1046.82	279.856
1051.25	59.709
1055.67	111.266
1060.09	143.23
1064.51	30.96
1068.92	29.8662
1073.33	11.0234
1077.74	37.9463
1082.15	119.905
1086.55	366.69
1090.95	68.5723
1095.35	120.752
1099.75	59.75
1104.14	23.1475
1108.53	20.6631
1112.92	108.852
1117.31	300.621
1121.69	430.358
1126.07	83.0586
1130.45	202.92
1134.82	78.8389
1139.19	85.7197
1143.57	132.966
1147.93	61.085
1152.3	51.8242
1156.66	96.4082
1161.02	122.125
1165.38	155.561
1169.73	57.043
1174.08	91.8311
1178.43	195.907
1182.78	160.185
1187.12	26.3428
1191.46	120.877
1195.8	169.956
1200.14	76.8623
1204.47	149.649
1208.8	136.995
1213.13	187.487
1217.46	18.8145
1221.78	56.9404
1226.1	237.281
1230.42	10.4385
1234.73	33.5518
1239.04	262.966
1243.35	97.582
1247.66	105.397
1251.97	97.0723
1256.27	117.606
1260.57	39.0801
1264.86	134.579
1269.16	22.6992
1273.45	68.3262
1277.74	145.547
1282.03	30.4912
1286.31	35.248
1290.59	139.798
1294.87	7.75195
1299.14	86.5947
1303.42	39.2988
1307.69	110.469
1311.95	156.412
1316.22	175.946
1320.48	308.841
1324.74	296.685
1329	109.408
1333.26	94.8545
1337.51	17.4971
1341.76	113.013
1346	156.795
1350.25	174.121
1354.49	100.407
1358.73	117.513
1362.96	194.202
1367.2	72.5029
1371.43	89.5644
1375.66	213.055
1379.88	196.591
1384.11	606.185
1388.33	615.715
1392.54	782.982
1396.76	681.634
1400.97	782.406
1405.18	664.55
1409.39	601.328
1413.59	692.977
1417.8	685.893
1421.99	664.869
1426.19	571.138
1430.38	670.34
1434.58	845.8
1438.77	1154.25
1442.95	1665.78
1447.13	2211.98
1451.32	2989.36
1455.49	7186.82
1459.67	23419.4
1463.84	16655.6
1468.01	6425.8
1472.18	5931.23
1476.35	7644.61
1480.51	14210.3
1484.67	28025.7
1488.83	36531.6
1492.98	18932.1
1497.13	6682.13
1501.28	2855.4
1505.43	1420.14
1509.57	808.145
1513.71	532.562
1517.85	353.713
1521.99	286.181
1526.12	77.7705
1530.25	354.552
1534.38	345.632
1538.5	150.247
1542.62	45.1787
1546.74	18.0664
1550.86	182.117
1554.98	212.273
1559.09	195.245
1563.2	74.3887
1567.31	5.77637
