Measurement: Raman, 514 nm, ccw, Raman Data Processed
Mineral: Whewellite
Rruff sample: R050240
Ideal chemistry: CaC_2_O_4_H_2_O
Locality: Huron River, Milan, Ohio, USA
Source: Marcus Origlieri
Description: White fragment
Measured chemistry: Ca_1.00_C_2_O_4_Â·H_2_O
Pin_id: L01615
Orientation: Laser parallel to -a* (-1 0 0). Fiducial mark perpendicular to laser is parallel to b [0 1 0]
Raman shift (cm-1)	intensity
100.883	0
105.815	247.657
110.744	310.041
115.671	1183.5
120.596	3035.67
125.519	6236.26
130.439	10702.9
135.356	12533.7
140.271	10665.3
145.184	7063.62
150.094	3653.26
155.002	1368.67
159.908	455.004
164.811	13.3813
169.711	205.317
174.61	859.885
179.505	2246.91
184.399	4028.96
189.29	6804.05
194.178	9485.5
199.064	13864.4
203.948	19457.9
208.829	18941.2
213.708	13050.9
218.585	9998.28
223.459	7488.85
228.33	3451.58
233.199	2089.15
238.066	2169.47
242.93	2605.44
247.792	2934.77
252.651	2163.57
257.508	1495.8
262.363	838.231
267.215	827.428
272.064	561.962
276.912	441.295
281.756	290.378
286.598	500.613
291.438	394.785
296.276	496.733
301.111	451.613
305.943	132.457
310.773	3.16309
315.601	16.2373
320.426	10.4097
325.248	127.233
330.068	48.354
334.886	170.781
339.701	116.635
344.514	58.8828
349.324	66.4648
354.132	122.534
358.938	16.5068
363.741	33.2373
368.541	101.627
373.339	71.8955
378.135	153.487
382.928	287.907
387.718	140.479
392.506	202.382
397.292	172.82
402.075	337.627
406.856	206.732
411.634	252.06
416.41	357.644
421.183	351.485
425.954	510.022
430.722	436.762
435.488	568.412
440.251	503.773
445.012	573.535
449.77	727.488
454.526	897.247
459.28	1072.27
464.03	1395.45
468.779	1450.82
473.525	2257.03
478.268	3306.19
483.009	5441.38
487.747	10428.8
492.483	23445.1
497.217	43590.5
501.948	51075.1
506.676	28470
511.402	11911
516.125	5746.06
520.846	3592.26
525.565	2251.44
530.281	1310.7
534.994	940.211
539.705	686.426
544.413	544.376
549.119	398.938
553.822	391.944
558.523	273.885
563.222	356.708
567.917	410.239
572.611	469.33
577.302	607.984
581.99	911.598
586.676	1463.08
591.359	1825.17
596.04	1778.6
600.718	1294.41
605.394	678.889
610.067	502.188
614.737	214.538
619.406	178.969
624.071	107.905
628.734	178.009
633.395	179.484
638.053	184.358
642.708	193.542
647.361	95.9741
652.012	76.791
656.66	152.376
661.305	176.667
665.948	163.213
670.588	26.5405
675.226	92.4692
679.861	98.376
684.494	169.836
689.124	32.0137
693.752	0.664063
698.377	3.79688
702.999	71.8916
707.619	54.4482
712.237	5.91211
716.852	22.2617
721.464	16.5371
726.074	41.7324
730.681	31.8242
735.286	65.3291
739.888	5.94727
744.488	65.2275
749.085	40.835
753.68	75.8184
758.272	7.41894
762.861	198.961
767.448	150.446
772.033	222.87
776.614	340.231
781.194	377.515
785.77	86.7295
790.345	136.739
794.916	62.8203
799.485	4.67871
804.052	59.4004
808.616	86.6719
813.177	42.8779
817.736	25.2666
822.292	95.2041
826.846	8.18066
831.397	26.1328
835.945	86.7119
840.491	297.817
845.035	208.1
849.576	469.381
854.114	834.531
858.65	2882.93
863.183	5682.35
867.713	3594.79
872.241	1692.32
876.767	1935.62
881.29	3147.37
885.81	5996.95
890.328	18934.6
894.843	39677.4
899.356	9909.6
903.866	1950.88
908.373	1213.24
912.878	967.715
917.38	1264.25
921.88	1348.85
926.377	1455.22
930.872	1563.99
935.364	1626.05
939.853	1748.31
944.34	1726.5
948.824	1332.06
953.306	897.678
957.785	685.828
962.261	266.79
966.735	267.083
971.207	175.383
975.675	215.444
980.141	58.6494
984.605	117.007
989.066	58.4873
993.524	261.184
997.98	52.1924
1002.43	114.091
1006.88	160.282
1011.33	49.9746
1015.78	17.9619
1020.22	303.259
1024.66	233.241
1029.1	239.942
1033.53	425.477
1037.97	345.089
1042.4	252.034
1046.82	204.828
1051.25	114.725
1055.67	52.6846
1060.09	34.7178
1064.51	69.1856
1068.92	50.2188
1073.33	11.4854
1077.74	45.1465
1082.15	281.551
1086.55	397.006
1090.95	140.08
1095.35	10.6113
1099.75	38.1397
1104.14	2.90234
1108.53	34.4043
1112.92	164.639
1117.31	320.347
1121.69	309.708
1126.07	176.1
1130.45	26.0049
1134.82	52.6152
1139.19	99.1113
1143.57	39.8887
1147.93	16.9609
1152.3	79.1885
1156.66	109.181
1161.02	109.553
1165.38	74.2109
1169.73	7.91602
1174.08	62.4697
1178.43	183.866
1182.78	258.022
1187.12	77.0938
1191.46	217.079
1195.8	171.951
1200.14	63.6416
1204.47	43.9902
1208.8	80.4736
1213.13	96.9014
1217.46	44.2305
1221.78	26.3623
1226.1	25.3457
1230.42	137.278
1234.73	3.53418
1239.04	173.099
1243.35	112.1
1247.66	88.3252
1251.97	58.544
1256.27	58.1094
1260.57	104.439
1264.86	173.909
1269.16	56.2432
1273.45	106.276
1277.74	70.3535
1282.03	235.594
1286.31	14.3926
1290.59	133.917
1294.87	183.425
1299.14	86.4902
1303.42	88.9795
1307.69	190.261
1311.95	253.453
1316.22	294.632
1320.48	339.815
1324.74	330.578
1329	281.839
1333.26	36.8799
1337.51	184.568
1341.76	164.402
1346	167.065
1350.25	42.1172
1354.49	168.275
1358.73	87.7627
1362.96	41.4453
1367.2	19.9854
1371.43	171.017
1375.66	203.575
1379.88	227.039
1384.11	566.766
1388.33	479.465
1392.54	573.248
1396.76	769.159
1400.97	692.812
1405.18	365.922
1409.39	681.513
1413.59	504.631
1417.8	509.601
1421.99	378.929
1426.19	598.436
1430.38	610.084
1434.58	694.291
1438.77	921.956
1442.95	1305.01
1447.13	1675.71
1451.32	2404.48
1455.49	5923.35
1459.67	18564.3
1463.84	13795.4
1468.01	5000.28
1472.18	4414.83
1476.35	5719.02
1480.51	10367.1
1484.67	20389.4
1488.83	27357
1492.98	14251
1497.13	4930.07
1501.28	2123.42
1505.43	1140.05
1509.57	621.754
1513.71	365.779
1517.85	250.322
1521.99	190.415
1526.12	166.851
1530.25	267.241
1534.38	127.738
1538.5	92.6221
1542.62	148.351
1546.74	120.554
1550.86	129.636
1554.98	57.5615
1559.09	85.2129
1563.2	101.775
1567.31	57.8994
