Measurement: Raman, 514 nm, ccw, Raman Data Processed
Mineral: Whewellite
Rruff sample: R050240
Ideal chemistry: CaC_2_O_4_H_2_O
Locality: Huron River, Milan, Ohio, USA
Source: Marcus Origlieri
Description: White fragment
Measured chemistry: Ca_1.00_C_2_O_4_Â·H_2_O
Pin_id: L00839
Orientation: Laser parallel to c* (0 0 1). Fiducial mark perpendicular to laser is parallel to a [1 0 0]
Raman shift (cm-1)	intensity
107.047	0
111.976	7.91894
116.903	391.655
121.827	1004.35
126.749	2187.47
131.668	3999.68
136.585	5837.54
141.5	5978.99
146.412	3417.41
151.321	1604.38
156.229	687.285
161.134	530.351
166.036	309.369
170.936	574.094
175.834	675.82
180.729	1156.22
185.622	2505.28
190.512	4617.73
195.4	5368.8
200.286	4630.79
205.169	4495.7
210.049	3867.87
214.928	2814.39
219.803	3158.25
224.677	2803.67
229.548	1548.44
234.416	1205.44
239.282	1311.64
244.146	1813.13
249.007	2122.35
253.866	1498.19
258.722	710.854
263.576	476.055
268.427	495.057
273.276	349.923
278.123	289.344
282.967	317.417
287.809	248.631
292.648	63.0947
297.485	150.357
302.319	94.2773
307.151	61.6406
311.98	6.8418
316.807	83.2754
321.631	51.627
326.454	29.8105
331.273	157.941
336.09	102.118
340.905	84.9131
345.717	84.1094
350.527	43.5674
355.334	4.71777
360.139	3.99707
364.941	33.2744
369.741	96.5
374.538	197.684
379.333	80.3691
384.126	72.4766
388.916	140.138
393.703	35.3779
398.488	23.0039
403.271	0.916992
408.051	172.535
412.828	82.1045
417.603	168.792
422.376	45.6553
427.146	100.814
431.914	123.079
436.679	29.2695
441.442	94.4316
446.202	128.573
450.96	219.742
455.715	145.498
460.467	228.13
465.218	230.893
469.965	166.13
474.711	149.048
479.454	284.428
484.194	322.238
488.932	208.992
493.667	673.756
498.4	1202.13
503.13	1425.15
507.858	1076.65
512.583	1011.4
517.306	1621.67
522.026	1546.93
526.744	1098.64
531.459	585.033
536.172	268.973
540.882	303.623
545.59	136.445
550.295	0.607422
554.998	257.363
559.698	147.977
564.396	266.106
569.091	391.389
573.784	516.656
578.474	383.963
583.162	852.764
587.847	1139.23
592.529	1622.46
597.209	1686.89
601.887	1247.98
606.562	746.602
611.235	559.01
615.905	506.894
620.572	273.715
625.237	219.408
629.9	190.545
634.56	317.615
639.217	198.291
643.872	247.92
648.524	267.473
653.174	222.981
657.821	40.5996
662.466	167.025
667.108	196.016
671.748	37.6719
676.385	102.059
681.02	26.4121
685.652	226.121
690.281	173.516
694.908	173.758
699.533	111.074
704.155	81.418
708.774	80.8418
713.391	134.648
718.005	309.467
722.617	65.2363
727.226	141.865
731.833	100.404
736.437	132.951
741.039	144.514
745.638	64.9707
750.234	115.281
754.828	141.365
759.419	115.406
764.008	93.4023
768.595	4.38281
773.178	206.973
777.759	373.934
782.338	90.9082
786.914	324.863
791.488	43.8223
796.059	96.5781
800.627	24.2617
805.193	228.664
809.756	75.291
814.317	78.2129
818.875	139.832
823.431	102.445
827.984	16.0234
832.534	7.47266
837.082	147.623
841.627	22.7051
846.17	10.4922
850.71	363.375
855.248	353.422
859.783	773.5
864.316	959.693
868.846	783.824
873.373	671.131
877.898	833.582
882.42	1083.17
886.94	1389.16
891.457	3474.79
895.971	7459.5
900.483	1648.06
904.993	502.018
909.5	360.092
914.004	419.152
918.505	357.832
923.004	810.324
927.501	684.229
931.995	721.09
936.486	869.303
940.975	964.236
945.461	655.557
949.945	696.789
954.426	560.098
958.904	378.611
963.38	332.269
967.853	66.6191
972.324	69.6582
976.792	113.029
981.258	227.711
985.72	89.6973
990.181	288.889
994.639	46.3066
999.094	479.949
1003.55	194.691
1008	166.668
1012.44	42.3965
1016.89	195.615
1021.33	36.9258
1025.77	186.4
1030.21	58.9805
1034.64	225.553
1039.07	103.258
1043.5	223.897
1047.93	177.699
1052.35	147.486
1056.78	129.357
1061.19	6.79297
1065.61	64.0566
1070.02	399.967
1074.43	25.8828
1078.84	33.1875
1083.25	97.3359
1087.65	318.666
1092.05	99.4648
1096.45	14.9258
1100.85	73.5644
1105.24	216.193
1109.63	93.8418
1114.02	262.324
1118.4	292.738
1122.78	129.377
1127.16	301.932
1131.54	78.3848
1135.92	16.375
1140.29	133.301
1144.66	93.6231
1149.02	98.9277
1153.39	236.269
1157.75	177.289
1162.11	64.3301
1166.46	143.371
1170.82	278.891
1175.17	27.7324
1179.52	171.777
1183.86	334.541
1188.21	346.232
1192.55	167.514
1196.89	335.486
1201.22	306.506
1205.55	69.2051
1209.88	43.3828
1214.21	200.365
1218.54	331.381
1222.86	341.842
1227.18	316.588
1231.5	18.9141
1235.81	143.037
1240.12	223.084
1244.43	406.19
1248.74	247.185
1253.04	103.002
1257.34	250.613
1261.64	47.2344
1265.94	179.654
1270.23	169.529
1274.52	481.383
1278.81	168.303
1283.1	38.1738
1287.38	18.1152
1291.66	15.2422
1295.94	237.629
1300.21	149.098
1304.48	121.793
1308.75	207.637
1313.02	184.621
1317.29	332.748
1321.55	44.0859
1325.81	186.502
1330.06	97.7598
1334.32	27.4609
1338.57	60.1055
1342.82	52.7793
1347.06	63.5625
1351.31	355.793
1355.55	46.6016
1359.79	37.3223
1364.02	184.945
1368.26	163.393
1372.49	168.018
1376.71	445.19
1380.94	430.688
1385.16	572.885
1389.38	889.607
1393.6	1018.24
1397.81	947.137
1402.02	607.316
1406.23	599.451
1410.44	470.178
1414.64	263.322
1418.85	351.586
1423.04	530.856
1427.24	635.691
1431.43	558.459
1435.62	824.25
1439.81	950.547
1444	1449.04
1448.18	1876.82
1452.36	3227.82
1456.54	8417.73
1460.71	26649.3
1464.89	14097.6
1469.06	4224.33
1473.22	3270.68
1477.39	3963.91
1481.55	6775.88
1485.71	13431.3
1489.86	15920.1
1494.02	7440.57
1498.17	2990.03
1502.32	1289.64
1506.46	663.469
1510.61	447.621
1514.75	568.535
1518.88	281.875
1523.02	373.527
1527.15	282.246
1531.28	3.92188
1535.41	258.16
1539.53	101.867
1543.66	92.7344
1547.78	97.1367
1551.89	364.648
1556.01	167.848
1560.12	180.844
1564.23	12.832
1568.33	192.062
