Measurement: Raman, 514 nm, ccw, Raman Data Processed
Mineral: Whewellite
Rruff sample: R050240
Ideal chemistry: CaC_2_O_4_H_2_O
Locality: Huron River, Milan, Ohio, USA
Source: Marcus Origlieri
Description: White fragment
Measured chemistry: Ca_1.00_C_2_O_4_Â·H_2_O
Pin_id: L00839
Orientation: Laser parallel to c* (0 0 1). Fiducial mark perpendicular to laser is parallel to a [1 0 0]
Raman shift (cm-1)	intensity
107.047	0
111.976	14.0146
116.903	327.5
121.827	1042.92
126.749	1900.88
131.668	3131.7
136.585	4170.89
141.5	3484.39
146.412	1456.98
151.321	639.95
156.229	236.321
161.134	127.441
166.036	192.395
170.936	285.077
175.834	368.549
180.729	897.275
185.622	1617.33
190.512	2810.74
195.4	3014.56
200.286	3227.41
205.169	3722.05
210.049	2955.01
214.928	2088.75
219.803	1996.04
224.677	1667.18
229.548	816.407
234.416	577.434
239.282	419.807
244.146	301.931
249.007	248.365
253.866	186.154
258.722	234.148
263.576	195.287
268.427	75.3291
273.276	158.561
278.123	121.755
282.967	68.4316
287.809	108.425
292.648	87.3398
297.485	163.947
302.319	91.5527
307.151	136.889
311.98	44.5791
316.807	38.7471
321.631	47.6143
326.454	65.9082
331.273	15.9248
336.09	22.5176
340.905	57.1738
345.717	20.8467
350.527	52.5137
355.334	50.0605
360.139	84.5449
364.941	64.6543
369.741	73.7861
374.538	87.8857
379.333	51.8662
384.126	78.6768
388.916	87.4053
393.703	111.498
398.488	228.686
403.271	39.6006
408.051	152.081
412.828	33.1816
417.603	79.8945
422.376	116.407
427.146	83.582
431.914	36.5312
436.679	77.9336
441.442	58.0449
446.202	87.2129
450.96	196.2
455.715	69.4561
460.467	32.8945
465.218	82.8848
469.965	84.1865
474.711	176.794
479.454	110.42
484.194	75.5508
488.932	166.913
493.667	381.986
498.4	506.06
503.13	438.368
507.858	357.241
512.583	407.938
517.306	457.625
522.026	469.809
526.744	384.308
531.459	288.751
536.172	213.837
540.882	46.7158
545.59	111.483
550.295	53.1494
554.998	42.915
559.698	189.77
564.396	23.2852
569.091	232.249
573.784	152.279
578.474	310.885
583.162	115.132
587.847	324.69
592.529	412.622
597.209	424.711
601.887	256.32
606.562	237.577
611.235	193.596
615.905	186.204
620.572	276.08
625.237	263.881
629.9	154.633
634.56	276.328
639.217	53.9678
643.872	156.602
648.524	218.251
653.174	220.851
657.821	98.7695
662.466	181.328
667.108	159.861
671.748	231.572
676.385	161.482
681.02	63.5215
685.652	109.642
690.281	91.0586
694.908	30.3242
699.533	225.347
704.155	36.7988
708.774	98.5264
713.391	5.46289
718.005	87.4463
722.617	54.2353
727.226	117.025
731.833	29.8154
736.437	191.715
741.039	145.869
745.638	34.1065
750.234	29.3779
754.828	264.651
759.419	90.9268
764.008	178.223
768.595	94.5303
773.178	200.851
777.759	497.184
782.338	311.532
786.914	151.898
791.488	31.2822
796.059	102.673
800.627	34.0498
805.193	44.4678
809.756	56.9111
814.317	130.08
818.875	90.8662
823.431	15.0908
827.984	155.822
832.534	181.124
837.082	170.567
841.627	156.324
846.17	375.343
850.71	533.73
855.248	540.009
859.783	1222.85
864.316	1193.67
868.846	1102.63
873.373	1171.38
877.898	1721.8
882.42	1789.8
886.94	1628.02
891.457	1850.24
895.971	1837.67
900.483	857.174
904.993	546.777
909.5	574.449
914.004	808.19
918.505	913.003
923.004	938.886
927.501	1081.87
931.995	1042.56
936.486	1283.7
940.975	1168.7
945.461	1087.22
949.945	795.686
954.426	644.76
958.904	318.324
963.38	208.068
967.853	354.307
972.324	101.443
976.792	173.303
981.258	89.5137
985.72	77.6758
990.181	24.7949
994.639	54.4062
999.094	245.916
1003.55	107.613
1008	196.365
1012.44	14.1289
1016.89	28.9434
1021.33	158.877
1025.77	24.9004
1030.21	110.994
1034.64	62.6582
1039.07	210.982
1043.5	4.38086
1047.93	137.856
1052.35	154.412
1056.78	206.022
1061.19	225.553
1065.61	170.287
1070.02	71.918
1074.43	263.768
1078.84	141.602
1083.25	197.603
1087.65	352.658
1092.05	239.781
1096.45	11.9883
1100.85	38.1172
1105.24	53.3125
1109.63	211.623
1114.02	132.533
1118.4	224.852
1122.78	318.219
1127.16	233.242
1131.54	134.842
1135.92	61.7129
1140.29	58.2461
1144.66	165.326
1149.02	61.8965
1153.39	94.2598
1157.75	110.373
1162.11	158.699
1166.46	178.008
1170.82	78.2734
1175.17	142.935
1179.52	162.465
1183.86	66.7422
1188.21	17.9785
1192.55	90.2344
1196.89	170.451
1201.22	37.4609
1205.55	90.1953
1209.88	150.902
1214.21	115.678
1218.54	286.898
1222.86	134.346
1227.18	277.867
1231.5	152.309
1235.81	155.435
1240.12	126.877
1244.43	323.047
1248.74	191.885
1253.04	52.0898
1257.34	17.2812
1261.64	81.3887
1265.94	77.6875
1270.23	322.168
1274.52	155.037
1278.81	227.732
1283.1	126.781
1287.38	56.5742
1291.66	174.236
1295.94	79.4141
1300.21	304.037
1304.48	174.672
1308.75	63.3906
1313.02	290.195
1317.29	310.215
1321.55	134.184
1325.81	113.203
1330.06	73.8008
1334.32	128.26
1338.57	215.232
1342.82	3.97852
1347.06	25.2363
1351.31	12.5527
1355.55	57.2578
1359.79	81.4648
1364.02	272.172
1368.26	19.0527
1372.49	19.9863
1376.71	158.057
1380.94	118.199
1385.16	175.777
1389.38	256.644
1393.6	244.959
1397.81	515.635
1402.02	410.492
1406.23	541.559
1410.44	320.869
1414.64	303.684
1418.85	664.594
1423.04	523.887
1427.24	798.623
1431.43	788.484
1435.62	975.211
1439.81	1063.26
1444	1392.4
1448.18	1521.23
1452.36	2071.78
1456.54	2944.71
1460.71	5691.62
1464.89	4403.19
1469.06	4330.1
1473.22	5487.41
1477.39	7893.65
1481.55	15165.2
1485.71	29720.4
1489.86	33412.9
1494.02	14315.8
1498.17	5404.46
1502.32	2361.35
1506.46	1351.15
1510.61	684.939
1514.75	429.299
1518.88	418
1523.02	328.635
1527.15	341.451
1531.28	64.5547
1535.41	213.154
1539.53	152.59
1543.66	216.621
1547.78	103.93
1551.89	233.152
1556.01	23.2852
1560.12	313.857
1564.23	7.60742
1568.33	16.8145
