Measurement: Raman, 514 nm, ccw, Raman Data Processed
Mineral: Whewellite
Rruff sample: R050240
Ideal chemistry: CaC_2_O_4_H_2_O
Locality: Huron River, Milan, Ohio, USA
Source: Marcus Origlieri
Description: White fragment
Measured chemistry: Ca_1.00_C_2_O_4_Â·H_2_O
Pin_id: L01973
Orientation: Laser parallel to b* (0 1 0). Fiducial mark perpendicular to laser is parallel to -c [0 0 -1]
Raman shift (cm-1)	intensity
100.883	0
105.815	179.723
110.744	375.782
115.671	1137.02
120.596	2635.34
125.519	5167.87
130.439	8437.62
135.356	9125.44
140.271	7144.85
145.184	4235.36
150.094	2084.38
155.002	892.463
159.908	384.789
164.811	185.677
169.711	204.711
174.61	614.751
179.505	1451.54
184.399	2876.93
189.29	4980.59
194.178	6907.78
199.064	9157.5
203.948	11795.7
208.829	10293.1
213.708	7238.68
218.585	6248.3
223.459	5294.14
228.33	2654.76
233.199	1471.8
238.066	1146.01
242.93	1396.28
247.792	1618.32
252.651	1108.72
257.508	654.734
262.363	411.359
267.215	321.107
272.064	299.716
276.912	485.562
281.756	466.056
286.598	238.777
291.438	190.469
296.276	162.778
301.111	67.0312
305.943	9.05957
310.773	125.022
315.601	62.6758
320.426	36.7578
325.248	66.3232
330.068	16.3115
334.886	16.3662
339.701	119.343
344.514	81.5576
349.324	27.3193
354.132	8.66016
358.938	51.0674
363.741	26.9951
368.541	17.8398
373.339	11.2217
378.135	49.5508
382.928	88.1953
387.718	22.2168
392.506	127.877
397.292	75.0644
402.075	62.2246
406.856	48.5684
411.634	91.8447
416.41	115.469
421.183	108.731
425.954	110.586
430.722	157.018
435.488	231.05
440.251	208.677
445.012	314.904
449.77	120.731
454.526	265.15
459.28	261.894
464.03	403.865
468.779	491.205
473.525	723.141
478.268	948.38
483.009	1481.09
487.747	2982.39
492.483	6774
497.217	12419.2
501.948	13788.2
506.676	8087.15
511.402	3499.48
516.125	2003.35
520.846	1114.89
525.565	766.382
530.281	366.239
534.994	416.101
539.705	231.75
544.413	142.736
549.119	202.372
553.822	175.68
558.523	260.019
563.222	117.005
567.917	277.356
572.611	257.632
577.302	329.951
581.99	437.565
586.676	829.687
591.359	1002.52
596.04	1100.08
600.718	679.857
605.394	494.984
610.067	279.533
614.737	281.291
619.406	102.22
624.071	86.9697
628.734	13.7988
633.395	18.2295
638.053	92.7959
642.708	32.8115
647.361	81.7285
652.012	100.781
656.66	254.666
661.305	170.246
665.948	123.917
670.588	25.1523
675.226	172.529
679.861	40.1494
684.494	71.9658
689.124	113.265
693.752	119.298
698.377	116.614
702.999	72.6582
707.619	150.753
712.237	65.7822
716.852	142.752
721.464	92.6465
726.074	21.4707
730.681	52.1836
735.286	83.7871
739.888	42.7412
744.488	77.4414
749.085	87.5029
753.68	28.2861
758.272	55.0127
762.861	234.686
767.448	183.94
772.033	154.856
776.614	257.372
781.194	356.697
785.77	256.876
790.345	66.2686
794.916	8.52441
799.485	25.5664
804.052	80.5195
808.616	124.677
813.177	150.39
817.736	91.1211
822.292	83.4756
826.846	181.644
831.397	26.7051
835.945	105.823
840.491	195.324
845.035	315.697
849.576	368.13
854.114	737.706
858.65	2204.92
863.183	2574.25
867.713	1180.69
872.241	1180.64
876.767	1460.74
881.29	1976.71
885.81	3017.16
890.328	7004.81
894.843	12399.5
899.356	3749.4
903.866	880.294
908.373	730.233
912.878	903.248
917.38	854.337
921.88	824.975
926.377	883.047
930.872	1221.26
935.364	1176.47
939.853	1218.87
944.34	1227.37
948.824	775.73
953.306	472.156
957.785	446.96
962.261	353.82
966.735	86.3037
971.207	78.1689
975.675	121.014
980.141	73.1992
984.605	144.461
989.066	82.8144
993.524	9.22949
997.98	190.711
1002.43	27.2432
1006.88	96.4453
1011.33	177.283
1015.78	124.408
1020.22	213.279
1024.66	300.769
1029.1	130.264
1033.53	158.779
1037.97	194.332
1042.4	121
1046.82	234.412
1051.25	254.027
1055.67	219.467
1060.09	131.182
1064.51	177.668
1068.92	119.631
1073.33	98.7227
1077.74	144.508
1082.15	933.584
1086.55	1340.81
1090.95	595.094
1095.35	158.664
1099.75	7.2168
1104.14	248.08
1108.53	219.228
1112.92	53.2559
1117.31	293.023
1121.69	165.117
1126.07	227.113
1130.45	268.881
1134.82	116.584
1139.19	169.535
1143.57	154.635
1147.93	111.041
1152.3	157.963
1156.66	230.4
1161.02	239.254
1165.38	280.772
1169.73	60.1719
1174.08	161.736
1178.43	22.0469
1182.78	10.2344
1187.12	253.666
1191.46	56.3945
1195.8	228.963
1200.14	157.56
1204.47	129.633
1208.8	237.758
1213.13	207.768
1217.46	77.6543
1221.78	57.2109
1226.1	67.8359
1230.42	80.7812
1234.73	257.949
1239.04	166.555
1243.35	5.51172
1247.66	114.225
1251.97	34.6992
1256.27	204.047
1260.57	231.256
1264.86	66.6133
1269.16	237.635
1273.45	148.139
1277.74	61.7266
1282.03	130.709
1286.31	91.4766
1290.59	78.1602
1294.87	155.772
1299.14	7.22461
1303.42	111.621
1307.69	96.6836
1311.95	159.826
1316.22	298.889
1320.48	134.01
1324.74	180.603
1329	168.924
1333.26	36.4199
1337.51	34.8672
1341.76	148.182
1346	21.5703
1350.25	134.566
1354.49	119.461
1358.73	200.592
1362.96	7.30859
1367.2	278.85
1371.43	53.3203
1375.66	320.574
1379.88	154.631
1384.11	170.076
1388.33	283.621
1392.54	387.867
1396.76	630.312
1400.97	500.711
1405.18	380.039
1409.39	550.648
1413.59	324.394
1417.8	619.154
1421.99	661.918
1426.19	721.201
1430.38	684.006
1434.58	843.644
1438.77	975.004
1442.95	1214.19
1447.13	1448.08
1451.32	2030.76
1455.49	4381.59
1459.67	11896.8
1463.84	9615.75
1468.01	4940.48
1472.18	5134.94
1476.35	7085.09
1480.51	13116.1
1484.67	26173.7
1488.83	33284.2
1492.98	16780.3
1497.13	5883.02
1501.28	2525.24
1505.43	1313.05
1509.57	850.939
1513.71	574.297
1517.85	442.805
1521.99	251.57
1526.12	153.209
1530.25	172.44
1534.38	120.424
1538.5	348.498
1542.62	254.289
1546.74	70.7285
1550.86	15.6738
1554.98	127.606
1559.09	199.117
1563.2	130.363
1567.31	267.695
