Measurement: Raman, 514 nm, ccw, Raman Data Processed
Mineral: Whewellite
Rruff sample: R050240
Ideal chemistry: CaC_2_O_4_H_2_O
Locality: Huron River, Milan, Ohio, USA
Source: Marcus Origlieri
Description: White fragment
Measured chemistry: Ca_1.00_C_2_O_4_Â·H_2_O
Pin_id: L01973
Orientation: Laser parallel to b* (0 1 0). Fiducial mark perpendicular to laser is parallel to -c [0 0 -1]
Raman shift (cm-1)	intensity
100.883	0
105.815	197.346
110.744	269.438
115.671	1015.21
120.596	2513.45
125.519	4794.34
130.439	7626.29
135.356	8457.97
140.271	7849.48
145.184	6370.12
150.094	3705.53
155.002	1875.92
159.908	967.908
164.811	445.418
169.711	566.268
174.61	968.473
179.505	1783.71
184.399	2902.82
189.29	4928.89
194.178	7182.31
199.064	11368.1
203.948	15318.3
208.829	14246.3
213.708	9956.15
218.585	7767.82
223.459	5751.76
228.33	3117.03
233.199	1944
238.066	2042.6
242.93	2425.67
247.792	2830.58
252.651	2093.27
257.508	1461.83
262.363	1050.92
267.215	1031.05
272.064	962.938
276.912	1136.93
281.756	1083.95
286.598	744.449
291.438	672.373
296.276	550.623
301.111	396.059
305.943	262.541
310.773	1.10742
315.601	44.6191
320.426	13.5049
325.248	31.5498
330.068	81.9932
334.886	87.1719
339.701	41.9502
344.514	47.5049
349.324	27.3789
354.132	64.4863
358.938	79.4228
363.741	42.8076
368.541	119.414
373.339	123.306
378.135	0.78125
382.928	84.0791
387.718	122.676
392.506	5.99609
397.292	155.095
402.075	120.018
406.856	262.643
411.634	177.976
416.41	164.938
421.183	93.4746
425.954	245.494
430.722	352.025
435.488	396.047
440.251	371.551
445.012	360.544
449.77	594.016
454.526	500.904
459.28	889.404
464.03	1006.78
468.779	1188.53
473.525	1928.34
478.268	2729.22
483.009	5002.26
487.747	9509.45
492.483	21041.3
497.217	38941.5
501.948	46009.8
506.676	27539.6
511.402	11461.5
516.125	5653.9
520.846	3393.54
525.565	2123.03
530.281	1229.42
534.994	680.326
539.705	645.587
544.413	520.144
549.119	373.881
553.822	482.102
558.523	171.344
563.222	295.63
567.917	248.659
572.611	235.6
577.302	362.07
581.99	831.601
586.676	1128.88
591.359	1412.67
596.04	1468.94
600.718	904.346
605.394	415.821
610.067	307.357
614.737	103.929
619.406	92.2959
624.071	261.889
628.734	19.6318
633.395	65.1455
638.053	30.793
642.708	13.5625
647.361	118.532
652.012	166.602
656.66	79.0762
661.305	223.56
665.948	69.8242
670.588	22.4834
675.226	108.73
679.861	49.9209
684.494	63.5147
689.124	72.917
693.752	86.6748
698.377	31.2969
702.999	32.7324
707.619	134.019
712.237	351.164
716.852	287.168
721.464	34.4902
726.074	98.8398
730.681	98.4648
735.286	77.0684
739.888	150.955
744.488	0.314453
749.085	69.5957
753.68	271.465
758.272	143.269
762.861	154.422
767.448	298.664
772.033	402.533
776.614	411.228
781.194	396.455
785.77	102.998
790.345	96.7773
794.916	48.4043
799.485	217.865
804.052	207.19
808.616	11.6016
813.177	19.1035
817.736	32.7012
822.292	46.3594
826.846	10.75
831.397	66.9629
835.945	159.514
840.491	133.32
845.035	370.127
849.576	440.824
854.114	868.312
858.65	2439.51
863.183	3784.89
867.713	2674.21
872.241	1593.83
876.767	1886.99
881.29	2726.92
885.81	5643.44
890.328	17715.8
894.843	35622
899.356	10687.2
903.866	1652.18
908.373	990.58
912.878	906.023
917.38	1114.5
921.88	1107.08
926.377	1169.72
930.872	1333.88
935.364	1579.67
939.853	1589.39
944.34	1407.41
948.824	1235.49
953.306	743.582
957.785	609.625
962.261	336.182
966.735	109.926
971.207	269.598
975.675	78.9805
980.141	253.106
984.605	148.303
989.066	96.418
993.524	285.932
997.98	98.6172
1002.43	145.461
1006.88	130.318
1011.33	114.398
1015.78	120.705
1020.22	145.603
1024.66	274.457
1029.1	160.41
1033.53	156.434
1037.97	449.658
1042.4	238.023
1046.82	184.322
1051.25	39.9277
1055.67	204.539
1060.09	156.197
1064.51	155.947
1068.92	4.67188
1073.33	165.469
1077.74	292.658
1082.15	1196.3
1086.55	2414.41
1090.95	554.842
1095.35	127.723
1099.75	153.762
1104.14	290.897
1108.53	49.7754
1112.92	75.5059
1117.31	331.516
1121.69	331.857
1126.07	156.09
1130.45	178.805
1134.82	181.512
1139.19	66.0859
1143.57	115.668
1147.93	100.08
1152.3	2.64648
1156.66	95.8418
1161.02	8.48047
1165.38	240.621
1169.73	120.486
1174.08	214.385
1178.43	101.022
1182.78	113.125
1187.12	304.481
1191.46	132.879
1195.8	340.416
1200.14	100.644
1204.47	60.7207
1208.8	124.635
1213.13	144.281
1217.46	191.711
1221.78	377.92
1226.1	133.008
1230.42	313.586
1234.73	259.269
1239.04	324.691
1243.35	237.732
1247.66	191.418
1251.97	178.139
1256.27	148.291
1260.57	246.988
1264.86	150.441
1269.16	241.844
1273.45	240.092
1277.74	203.065
1282.03	67.3086
1286.31	222.897
1290.59	100.119
1294.87	218.203
1299.14	27.0488
1303.42	71.7168
1307.69	284.201
1311.95	183.291
1316.22	147.348
1320.48	135.383
1324.74	206.33
1329	372.158
1333.26	240.693
1337.51	428.316
1341.76	406.26
1346	277.676
1350.25	51.6836
1354.49	48.5723
1358.73	139.728
1362.96	199.932
1367.2	97.2051
1371.43	30.6348
1375.66	119.225
1379.88	103.152
1384.11	309.344
1388.33	282.467
1392.54	183.67
1396.76	338.025
1400.97	553.389
1405.18	482.959
1409.39	166.582
1413.59	359.291
1417.8	323.609
1421.99	320.885
1426.19	448.154
1430.38	758.225
1434.58	539.574
1438.77	730.834
1442.95	1127.94
1447.13	1569.89
1451.32	2144.36
1455.49	4839.87
1459.67	15623.5
1463.84	11973.1
1468.01	4390.19
1472.18	3766.19
1476.35	4805.99
1480.51	8565.09
1484.67	16845.4
1488.83	21317
1492.98	10963.9
1497.13	4074.51
1501.28	1559.29
1505.43	697.064
1509.57	709.992
1513.71	234.305
1517.85	314.443
1521.99	313.482
1526.12	349.012
1530.25	133.701
1534.38	122.775
1538.5	34.5156
1542.62	111.209
1546.74	8.5957
1550.86	164.287
1554.98	128.004
1559.09	123.746
1563.2	271.725
1567.31	3.31055
