Measurement: Raman, 514 nm, ccw, Raman Data Processed
Mineral: Whewellite
Rruff sample: R050240
Ideal chemistry: CaC_2_O_4_H_2_O
Locality: Huron River, Milan, Ohio, USA
Source: Marcus Origlieri
Description: White fragment
Measured chemistry: Ca_1.00_C_2_O_4_Â·H_2_O
Pin_id: L01973
Orientation: Laser parallel to b* (0 1 0). Fiducial mark perpendicular to laser is parallel to -c [0 0 -1]
Raman shift (cm-1)	intensity
100.883	0
105.815	123.456
110.744	91.9827
115.671	394.544
120.596	717.263
125.519	1409.02
130.439	2899.82
135.356	5008.39
140.271	6241.66
145.184	4148.81
150.094	1787.52
155.002	784.25
159.908	410.058
164.811	297.085
169.711	379.644
174.61	532.94
179.505	1292.29
184.399	2817.55
189.29	5186.6
194.178	6712.22
199.064	6049.46
203.948	5127.58
208.829	3332.77
213.708	2155.72
218.585	1910.93
223.459	1702.29
228.33	997.207
233.199	717.887
238.066	480.346
242.93	343.948
247.792	218.523
252.651	50.3262
257.508	141.145
262.363	56.8565
267.215	47.3892
272.064	90.9839
276.912	135.595
281.756	99.4512
286.598	35.1685
291.438	75.4907
296.276	74.4111
301.111	95.0347
305.943	127.027
310.773	5.31348
315.601	48.7139
320.426	68.6108
325.248	18.0352
330.068	37.5015
334.886	58.1577
339.701	40.5947
344.514	90.6094
349.324	22.5254
354.132	13.168
358.938	54.354
363.741	106.861
368.541	70.8906
373.339	7.70606
378.135	21.2153
382.928	83.4468
387.718	21.4273
392.506	53.1348
397.292	46.8477
402.075	101.844
406.856	47.8047
411.634	138.581
416.41	62.1294
421.183	112.475
425.954	81.7046
430.722	67.7446
435.488	73.6182
440.251	106.22
445.012	96.5889
449.77	30.9712
454.526	3.87402
459.28	27.1367
464.03	130.718
468.779	173.086
473.525	91.333
478.268	122.791
483.009	101.408
487.747	97.8447
492.483	209.392
497.217	235.762
501.948	199.415
506.676	327.954
511.402	298.384
516.125	537.215
520.846	374.608
525.565	259.288
530.281	203.686
534.994	126.304
539.705	97.793
544.413	106.664
549.119	5.36475
553.822	96.355
558.523	125.961
563.222	161.264
567.917	97.9775
572.611	147.709
577.302	197.537
581.99	178.206
586.676	327.186
591.359	309.592
596.04	316.711
600.718	327.94
605.394	245.066
610.067	318.586
614.737	82.1626
619.406	72.8994
624.071	128.759
628.734	151.157
633.395	135.739
638.053	131.314
642.708	65.8887
647.361	39.4766
652.012	153.097
656.66	188.69
661.305	45.273
665.948	154.044
670.588	28.9541
675.226	29.5615
679.861	54.1357
684.494	19.4253
689.124	44.0093
693.752	55.561
698.377	13.3804
702.999	105.798
707.619	136.949
712.237	36.1103
716.852	1.72461
721.464	57.4893
726.074	51.6885
730.681	42.0649
735.286	46.4307
739.888	26.9141
744.488	50.4536
749.085	39.0024
753.68	171.576
758.272	8.11328
762.861	109.62
767.448	265.153
772.033	393.715
776.614	303.308
781.194	368.931
785.77	286.585
790.345	164.277
794.916	134.019
799.485	122.814
804.052	23.6929
808.616	111.561
813.177	49.8755
817.736	33.7734
822.292	100.449
826.846	62.3232
831.397	216.278
835.945	224.782
840.491	233.689
845.035	351.461
849.576	502.813
854.114	689.107
858.65	1053.94
863.183	1195.92
867.713	1224.13
872.241	1844.03
876.767	2213.92
881.29	2679.36
885.81	2708.34
890.328	2633.28
894.843	2867.33
899.356	1438.51
903.866	890.819
908.373	905.142
912.878	995.514
917.38	1154.94
921.88	1155.41
926.377	1393.08
930.872	1374.69
935.364	1595.1
939.853	1550.99
944.34	1334.37
948.824	901.158
953.306	729.986
957.785	403.859
962.261	296.791
966.735	174.861
971.207	79.5469
975.675	150.829
980.141	90.4551
984.605	70.9565
989.066	25.2998
993.524	91.6919
997.98	30.1514
1002.43	116.22
1006.88	54.3491
1011.33	39.2622
1015.78	72.3799
1020.22	87.4844
1024.66	151.59
1029.1	76.0791
1033.53	139.635
1037.97	82.9062
1042.4	143.162
1046.82	185.397
1051.25	74.667
1055.67	95.981
1060.09	25.5376
1064.51	139.492
1068.92	97.6602
1073.33	142.725
1077.74	134.693
1082.15	513.798
1086.55	649.873
1090.95	101.855
1095.35	42.0469
1099.75	3.05762
1104.14	33.9434
1108.53	32.2275
1112.92	10.9033
1117.31	135.663
1121.69	112.139
1126.07	202.667
1130.45	160.644
1134.82	16.8955
1139.19	79.3369
1143.57	43.5371
1147.93	100.319
1152.3	59.7139
1156.66	15.4912
1161.02	102.365
1165.38	62.3955
1169.73	127.802
1174.08	143.56
1178.43	60.5752
1182.78	31.0303
1187.12	83.7139
1191.46	117.792
1195.8	55.2969
1200.14	134.304
1204.47	80.3721
1208.8	133.255
1213.13	156.446
1217.46	195.016
1221.78	24.4639
1226.1	95.8379
1230.42	66.0459
1234.73	83.8281
1239.04	54.7158
1243.35	111.717
1247.66	88.7432
1251.97	73.3242
1256.27	35.7832
1260.57	30.0225
1264.86	82.376
1269.16	1.17188
1273.45	7.19336
1277.74	82.1445
1282.03	32.6758
1286.31	91.0283
1290.59	19.5928
1294.87	63.832
1299.14	30.2441
1303.42	17.5762
1307.69	111.877
1311.95	11.9766
1316.22	11.793
1320.48	21.2559
1324.74	136.204
1329	0.086914
1333.26	7.17578
1337.51	27.4277
1341.76	99.999
1346	38.333
1350.25	0.398438
1354.49	11.29
1358.73	109.831
1362.96	66.0049
1367.2	69.6768
1371.43	75.7607
1375.66	169.01
1379.88	123.288
1384.11	124.439
1388.33	544.646
1392.54	570.511
1396.76	726.464
1400.97	555.802
1405.18	636.727
1409.39	668.302
1413.59	589.701
1417.8	727.503
1421.99	759.402
1426.19	861.137
1430.38	907.642
1434.58	1197.89
1438.77	1147.1
1442.95	1666.53
1447.13	1903.86
1451.32	2355.78
1455.49	4308.4
1459.67	10307.9
1463.84	8790.91
1468.01	6002.45
1472.18	6931.05
1476.35	9804.8
1480.51	17923.7
1484.67	36136.9
1488.83	47710.3
1492.98	24637.1
1497.13	8695.27
1501.28	3711.86
1505.43	1904.52
1509.57	1071.39
1513.71	667.001
1517.85	435.617
1521.99	473.678
1526.12	125.751
1530.25	306.022
1534.38	91.7373
1538.5	40.2227
1542.62	162.086
1546.74	104.963
1550.86	80.582
1554.98	111.28
1559.09	34.8174
1563.2	218.782
1567.31	63.9092
