Measurement: Raman, 514 nm, ccw, Raman Data Processed
Mineral: Whitlockite
Rruff sample: R070675
Ideal chemistry: Ca_9_Mg(PO_4_)_6_(PO_3_OH)
Locality: Palermo mine, North Groton, New Hampshire, USA
Source: Rock Currier
Description: Colorless blocky modified rhombic crystals
Measured chemistry: (Ca_8.70_Na_0.27_Sr_0.02_Mn_0.01_)_Σ=9_(Mg_0.73_Fe^3+^_0.19_Al_0.08_)_Σ=1_(P_1.00_O_3_((OH)_0.58_F_0.42_)_Σ=1_)(P_1.00_O_4_)_6_; OH estimated by charge balance
Pin_id: M00295
Orientation: Laser parallel to c* (0 0 1). Fiducial mark perpendicular to laser is parallel to a [1 0 0]
Raman shift (cm-1)	intensity
132.388	0
137.342	34.7053
142.294	57.075
147.242	317.062
152.187	687.137
157.13	911.049
162.069	1095.47
167.005	1009.28
171.938	1068.66
176.868	1165.18
181.794	830.76
186.718	533.29
191.639	323.952
196.556	186.465
201.471	200.79
206.382	195.237
211.29	305.3
216.196	373.563
221.098	492.295
225.997	496.843
230.894	545.429
235.787	595.682
240.677	594.566
245.564	763.614
250.448	798.197
255.329	860.368
260.207	896.626
265.082	798.471
269.954	790.038
274.823	820.345
279.689	944.008
284.552	1008.46
289.412	787.58
294.269	606.583
299.123	423.013
303.974	313.654
308.822	175.366
313.667	138.03
318.509	61.5735
323.349	22.9456
328.185	51.0195
333.018	77.3215
337.848	50.2981
342.676	33.9517
347.5	25.2346
352.321	54.0508
357.14	27.392
361.955	1.8739
366.768	22.1881
371.578	41.4233
376.384	70.6047
381.188	188.93
385.989	431.286
390.787	810.895
395.582	1212.09
400.374	1736.06
405.164	2334.95
409.95	2438.8
414.733	2017.63
419.514	1916.41
424.292	1813.13
429.066	2046.81
433.838	2310.38
438.607	2529.85
443.373	2600.16
448.137	2706.29
452.897	2665.25
457.655	2375.03
462.409	2116.53
467.161	1755.62
471.91	1433.34
476.656	1383.19
481.399	1345.47
486.14	1206.86
490.877	902.451
495.612	513.062
500.344	321.947
505.073	100.94
509.799	134.384
514.523	156.652
519.243	120.994
523.961	184.464
528.676	299.149
533.388	465.003
538.097	825.73
542.804	1577.19
547.508	2361.54
552.209	2551.65
556.907	2492.85
561.602	2422.43
566.295	1713
570.984	978.485
575.671	593.744
580.356	593.189
585.037	942.768
589.716	1467.92
594.392	1803.92
599.065	2071.22
603.735	2601.49
608.403	2176.89
613.068	1616.23
617.73	1505.79
622.389	1537.56
627.046	1498.21
631.7	1238.53
636.351	690.335
641	273.256
645.645	130.24
650.288	51.0615
654.929	63.8115
659.566	87.2283
664.201	59.8447
668.833	22.8643
673.463	79.2908
678.09	50.6394
682.714	68.7195
687.335	45.9253
691.954	18.8672
696.57	39.3911
701.183	72.4394
705.793	7.66211
710.401	85.0928
715.007	83.97
719.609	38.4622
724.209	7.50391
728.806	47.0259
733.401	51.1248
737.993	88.6746
742.582	97.7141
747.169	49.3052
751.753	4.50415
756.334	36.2705
760.913	34.645
765.489	23.6311
770.062	10.9309
774.633	7.11231
779.201	8.8418
783.766	15.8682
788.329	12.1179
792.889	17.5832
797.447	14.1921
802.002	52.0586
806.554	23.7209
811.104	9.14624
815.651	1.46973
820.196	30.48
824.738	52.2349
829.277	3.58301
833.814	67.1597
838.348	8.47925
842.88	10.9854
847.409	37.6475
851.935	92.1436
856.459	155.076
860.98	170.178
865.499	181.716
870.015	192.123
874.529	189.195
879.04	170.957
883.548	199.367
888.054	324.842
892.558	474.128
897.058	778.087
901.557	965.936
906.052	1212.94
910.546	1513.01
915.036	2586.01
919.524	4375.6
924.01	5382.1
928.493	3890.8
932.974	2008.47
937.452	1836.77
941.927	2478.83
946.4	4123.83
950.871	8394.12
955.339	20896.8
959.804	43585.3
964.267	58580.9
968.728	58338.2
973.185	34097.5
977.641	13454.1
982.094	6390.32
986.544	5240.6
990.992	5585.52
995.438	5854.06
999.881	5366.24
1004.32	4149.04
1008.76	3319.56
1013.2	3348.75
1017.63	3837.6
1022.06	4438.1
1026.49	4899.26
1030.91	4459.06
1035.34	3617.67
1039.76	2619.05
1044.18	1917.28
1048.59	1555.61
1053.01	1565.08
1057.42	1720.43
1061.83	2054.39
1066.23	1950.09
1070.64	1719.12
1075.04	1672.44
1079.44	1847.02
1083.83	1957.95
1088.23	2094.86
1092.62	2164.56
1097.01	1932.54
1101.39	1715.98
1105.78	1452.85
1110.16	1097.25
1114.54	876.86
1118.92	567.76
1123.29	375.203
1127.67	222.417
1132.04	245.14
1136.4	154.113
1140.77	182.394
1145.13	238.49
1149.49	109.761
1153.85	157.592
1158.21	111.875
1162.56	49.9114
1166.91	52.9314
1171.26	93.0688
1175.61	12.6941
1179.95	104.492
1184.29	83.2122
1188.63	15.9929
1192.97	29.603
1197.3	25.5215
1201.64	71.2495
1205.97	13.8892
1210.29	12.8037
1214.62	97.3023
1218.94	96.5962
1223.26	160.556
1227.58	53.6833
1231.9	106.829
1236.21	100.235
1240.52	66.5903
1244.83	156.356
1249.14	150.58
1253.44	172.255
1257.74	192.292
1262.04	85.054
1266.34	83.0581
1270.64	63.0376
1274.93	113.1
1279.22	152.939
1283.51	51.4182
1287.79	109.265
1292.08	132.816
1296.36	134.442
1300.64	120.502
1304.92	95.7239
1309.19	153.859
1313.46	44.2822
1317.73	107.068
1322	61.9675
1326.27	7.80835
1330.53	37.5227
1334.79	45.1184
1339.05	37.7395
1343.31	28.3689
1347.56	3.28809
1351.81	26.5276
1356.06	76.3201
1360.31	65.8406
1364.56	9.04688
1368.8	47.97
1373.04	74.7261
1377.28	61.9351
1381.52	90.3484
1385.75	40.2793
1389.98	98.9858
1394.21	15.3796
1398.44	77.9592
1402.66	114.237
1406.89	125.454
1411.11	16.0869
1415.33	135.488
1419.54	110.098
1423.76	82.9131
1427.97	76.7224
1432.18	120.22
1436.39	144.045
1440.59	261.233
1444.8	235.814
1449	272.514
1453.2	226.244
1457.39	367.062
1461.59	268.113
1465.78	182.936
1469.97	174.622
1474.16	170.933
1478.35	163.073
1482.53	169.165
1486.71	153.562
1490.89	141.027
1495.07	57.2707
1499.24	27.1289
1503.42	72.397
1507.59	122.503
1511.76	141.61
1515.92	107.71
1520.09	11.8755
1524.25	105.406
1528.41	62.8398
1532.57	135.19
1536.72	118.383
1540.88	95.3076
1545.03	132.727
1549.18	61.5366
1553.33	58.127
1557.47	37.1416
1561.62	18.6255
1565.76	0.931641
1569.89	1.30469
1574.03	83.2798
1578.17	0
