Measurement: Raman, 514 nm, ccw, Raman Data Processed
Mineral: Whitlockite
Rruff sample: R070675
Ideal chemistry: Ca_9_Mg(PO_4_)_6_(PO_3_OH)
Locality: Palermo mine, North Groton, New Hampshire, USA
Source: Rock Currier
Description: Colorless blocky modified rhombic crystals
Measured chemistry: (Ca_8.70_Na_0.27_Sr_0.02_Mn_0.01_)_Σ=9_(Mg_0.73_Fe^3+^_0.19_Al_0.08_)_Σ=1_(P_1.00_O_3_((OH)_0.58_F_0.42_)_Σ=1_)(P_1.00_O_4_)_6_; OH estimated by charge balance
Pin_id: M00691
Orientation: Laser parallel to a* (1 0 0). Fiducial mark perpendicular to laser is parallel to c [0 0 1]
Raman shift (cm-1)	intensity
137.342	0
142.294	95.7695
147.242	232.781
152.187	328.092
157.13	323.786
162.069	241.979
167.005	194.735
171.938	108.255
176.868	140.566
181.794	30.0049
186.718	0.800537
191.639	8.8728
196.556	48.6538
201.471	37.7957
206.382	43.3848
211.29	43.3513
216.196	91.5325
221.098	86.5447
225.997	226.396
230.894	191.643
235.787	287.113
240.677	307.091
245.564	308.729
250.448	368.075
255.329	436.337
260.207	484.64
265.082	458.857
269.954	523.934
274.823	624.888
279.689	695.73
284.552	784.165
289.412	704.256
294.269	547.13
299.123	458.109
303.974	288.938
308.822	158.488
313.667	99.7131
318.509	30.5642
323.349	16.3569
328.185	22.5933
333.018	64.146
337.848	1.92407
342.676	38.8269
347.5	23.0789
352.321	18.0549
357.14	77.6211
361.955	86.1709
366.768	130.749
371.578	248.26
376.384	391.977
381.188	562.585
385.989	1007.58
390.787	1658.12
395.582	2694.54
400.374	4195.01
405.164	5188.48
409.95	4616.97
414.733	3359.45
419.514	2951.9
424.292	2531.36
429.066	2478.79
433.838	2598.15
438.607	2294.39
443.373	2130.5
448.137	1887.48
452.897	1663.33
457.655	1448.06
462.409	1244.2
467.161	989.171
471.91	879.682
476.656	691.051
481.399	686.668
486.14	614.223
490.877	357.773
495.612	237.616
500.344	140.87
505.073	126.817
509.799	7.09229
514.523	2.65356
519.243	50.3
523.961	63.3313
528.676	161.27
533.388	240.257
538.097	512.089
542.804	845.01
547.508	1144.98
552.209	1064.22
556.907	985.268
561.602	1040.52
566.295	843.461
570.984	591.847
575.671	355.506
580.356	374.467
585.037	556.348
589.716	876.009
594.392	966.642
599.065	1049.89
603.735	1164.33
608.403	1294.8
613.068	1438.57
617.73	1722.18
622.389	2000.35
627.046	2058.18
631.7	1994.48
636.351	1354.13
641	456.117
645.645	180.929
650.288	132.537
654.929	111.197
659.566	40.4373
664.201	19.3586
668.833	27.1621
673.463	23.6482
678.09	6.56323
682.714	20.0796
687.335	2.16016
691.954	21.4575
696.57	37.9185
701.183	2.89844
705.793	112.451
710.401	52.8066
715.007	67.9944
719.609	94.5186
724.209	68.0876
728.806	69.1682
733.401	42.9434
737.993	118.916
742.582	55.0359
747.169	16.7632
751.753	12.0579
756.334	52.9788
760.913	3.58276
765.489	21.7886
770.062	7.63599
774.633	14.1306
779.201	11.7454
783.766	48.0112
788.329	19.4661
792.889	6.3374
797.447	7.50977
802.002	21.9956
806.554	36.5886
811.104	47.6511
815.651	18.5503
820.196	35.0149
824.738	53.8523
829.277	22.022
833.814	1.49951
838.348	67.1846
842.88	47.3674
847.409	57.1985
851.935	67.9258
856.459	33.1773
860.98	101.115
865.499	64.2227
870.015	114.047
874.529	70.4883
879.04	36.2429
883.548	107.409
888.054	272.78
892.558	437.29
897.058	574.703
901.557	770.081
906.052	850.934
910.546	1144.5
915.036	1818.2
919.524	2915.26
924.01	2874.62
928.493	1664.63
932.974	993.253
937.452	1009.42
941.927	1297.28
946.4	2008.02
950.871	3986.13
955.339	9945.17
959.804	22485.5
964.267	31032.2
968.728	28969
973.185	16457.3
977.641	6538.28
982.094	3385.35
986.544	3536.65
990.992	3622.53
995.438	3063.83
999.881	2093.53
1004.32	1486.64
1008.76	1380.66
1013.2	1398.64
1017.63	1722.13
1022.06	1976.13
1026.49	2197.57
1030.91	2057.78
1035.34	1567
1039.76	1247.07
1044.18	994.013
1048.59	714.769
1053.01	768.445
1057.42	839.167
1061.83	1031.84
1066.23	1118.83
1070.64	1176.29
1075.04	1478.85
1079.44	1911.44
1083.83	2393.11
1088.23	2521.92
1092.62	2377.07
1097.01	2239.58
1101.39	1946.39
1105.78	1605.41
1110.16	1317.48
1114.54	902.233
1118.92	747.369
1123.29	387.261
1127.67	364.191
1132.04	353.166
1136.4	219.836
1140.77	241.583
1145.13	167.127
1149.49	117.671
1153.85	92.2314
1158.21	96.8052
1162.56	1.30762
1166.91	22.6553
1171.26	0.080078
1175.61	89.23
1179.95	32.6777
1184.29	2.23291
1188.63	31.6245
1192.97	93.356
1197.3	27.6226
1201.64	58.7129
1205.97	76.3252
1210.29	57.3262
1214.62	35.4116
1218.94	79.458
1223.26	113.41
1227.58	34.3862
1231.9	71.1357
1236.21	132.919
1240.52	146.436
1244.83	143.838
1249.14	20.7246
1253.44	82.3154
1257.74	33.6606
1262.04	91.5762
1266.34	27.6143
1270.64	103.178
1274.93	11.8926
1279.22	85.5942
1283.51	117.317
1287.79	92.7852
1292.08	79.7231
1296.36	147.878
1300.64	114.335
1304.92	82.8892
1309.19	50.1645
1313.46	84.1123
1317.73	81.292
1322	108.872
1326.27	90.2705
1330.53	45.4756
1334.79	19.4824
1339.05	74.4976
1343.31	57.3667
1347.56	122.6
1351.81	39.7158
1356.06	104.658
1360.31	82.3965
1364.56	138.469
1368.8	111.957
1373.04	54.1753
1377.28	186.503
1381.52	106.379
1385.75	1.77783
1389.98	21.1533
1394.21	75.2139
1398.44	116.838
1402.66	1.74316
1406.89	59.7505
1411.11	65.5063
1415.33	57.334
1419.54	114.269
1423.76	96.5962
1427.97	65.604
1432.18	112.807
1436.39	77.9492
1440.59	119.519
1444.8	134.715
1449	154.364
1453.2	132.268
1457.39	236.365
1461.59	131.103
1465.78	93.0727
1469.97	64.7441
1474.16	39.2148
1478.35	34.4614
1482.53	103.262
1486.71	107.534
1490.89	53.2837
1495.07	30.9619
1499.24	9.66065
1503.42	164.564
1507.59	67.4785
1511.76	92.4199
1515.92	124.36
1520.09	29.332
1524.25	46.2173
1528.41	57.3198
1532.57	106.457
1536.72	40.6148
1540.88	7.27197
1545.03	81.2314
1549.18	7.72998
1553.33	10.6792
1557.47	21.8955
1561.62	146.789
1565.76	12.043
1569.89	3.31299
1574.03	55.4697
1578.17	0
