Measurement: Raman, 514 nm, ccw, Raman Data Processed
Mineral: Whitlockite
Rruff sample: R070675
Ideal chemistry: Ca_9_Mg(PO_4_)_6_(PO_3_OH)
Locality: Palermo mine, North Groton, New Hampshire, USA
Source: Rock Currier
Description: Colorless blocky modified rhombic crystals
Measured chemistry: (Ca_8.70_Na_0.27_Sr_0.02_Mn_0.01_)_Σ=9_(Mg_0.73_Fe^3+^_0.19_Al_0.08_)_Σ=1_(P_1.00_O_3_((OH)_0.58_F_0.42_)_Σ=1_)(P_1.00_O_4_)_6_; OH estimated by charge balance
Pin_id: M00691
Orientation: Laser parallel to a* (1 0 0). Fiducial mark perpendicular to laser is parallel to c [0 0 1]
Raman shift (cm-1)	intensity
137.342	0
142.294	42.7295
147.242	375.226
152.187	606.582
157.13	695.54
162.069	632.892
167.005	676.156
171.938	553.829
176.868	564.398
181.794	495.1
186.718	236.291
191.639	13.5215
196.556	162.381
201.471	24.7056
206.382	76.416
211.29	139.766
216.196	116.873
221.098	142.378
225.997	327.932
230.894	327.673
235.787	436.204
240.677	384.422
245.564	456.527
250.448	507.125
255.329	619.137
260.207	565.876
265.082	543.545
269.954	525.123
274.823	714.562
279.689	774.865
284.552	831.972
289.412	686.211
294.269	479.305
299.123	302.769
303.974	216.025
308.822	98.5562
313.667	105.743
318.509	49.853
323.349	4.90625
328.185	20.2398
333.018	47.1865
337.848	4.48584
342.676	36.5586
347.5	45.8784
352.321	48.9761
357.14	6.70947
361.955	64.1006
366.768	72.0913
371.578	38.2046
376.384	221.061
381.188	213.647
385.989	435.658
390.787	652.135
395.582	1171.19
400.374	1895.78
405.164	2295.07
409.95	2062.37
414.733	1727.69
419.514	1549.98
424.292	1627.19
429.066	1715.34
433.838	1764.56
438.607	1891.74
443.373	1843.84
448.137	1838.81
452.897	1816.66
457.655	1698.45
462.409	1538.11
467.161	1272.16
471.91	1144.89
476.656	996.153
481.399	1102.02
486.14	947.976
490.877	732.873
495.612	388.507
500.344	243.475
505.073	253.622
509.799	56.1343
514.523	94.9971
519.243	211.14
523.961	268.039
528.676	168.514
533.388	432.087
538.097	590.453
542.804	1351.66
547.508	1773.68
552.209	1410.85
556.907	1425.17
561.602	1552.01
566.295	1284.47
570.984	691.375
575.671	499.067
580.356	445.643
585.037	585.812
589.716	1035
594.392	1186.45
599.065	1300.4
603.735	1575.67
608.403	1474.49
613.068	1020.74
617.73	1253.09
622.389	1305.36
627.046	1356.72
631.7	1314.93
636.351	852.386
641	160.279
645.645	132.328
650.288	260.497
654.929	6.70117
659.566	39.1279
664.201	45.502
668.833	58.0586
673.463	71.3384
678.09	45.6201
682.714	34.7393
687.335	6.59033
691.954	20.02
696.57	145.829
701.183	170.778
705.793	144.071
710.401	29.9311
715.007	132.245
719.609	48.0708
724.209	31.4497
728.806	128.435
733.401	49.0395
737.993	93.9023
742.582	171.408
747.169	141.504
751.753	102.153
756.334	101.322
760.913	17.9624
765.489	51.269
770.062	29.27
774.633	43.0376
779.201	138.253
783.766	89.291
788.329	172.014
792.889	39.7378
797.447	33.9517
802.002	45.0688
806.554	53.4273
811.104	15.8286
815.651	19.9629
820.196	107.684
824.738	96.9766
829.277	108.525
833.814	1.62402
838.348	103.037
842.88	55.8721
847.409	23.7744
851.935	198.424
856.459	248.745
860.98	199.77
865.499	232.02
870.015	32.4346
874.529	176.232
879.04	85.8135
883.548	162.078
888.054	170.971
892.558	462.899
897.058	677.363
901.557	825.085
906.052	1085.56
910.546	1422.29
915.036	2763.64
919.524	4079.32
924.01	4301.23
928.493	2550.3
932.974	1607.18
937.452	1530.1
941.927	2076.23
946.4	2965.12
950.871	5921.8
955.339	14829.7
959.804	32643.3
964.267	44729.9
968.728	42014.8
973.185	23662.5
977.641	9397.11
982.094	5403.3
986.544	5660.08
990.992	6076.52
995.438	4806.56
999.881	3405.16
1004.32	2651.43
1008.76	2339.32
1013.2	2642.82
1017.63	3204.91
1022.06	3969.6
1026.49	4523.08
1030.91	4147.04
1035.34	3274.39
1039.76	2105.38
1044.18	1557.71
1048.59	1261.28
1053.01	1193.14
1057.42	1195.87
1061.83	1525.11
1066.23	1490.18
1070.64	1443.86
1075.04	1316.11
1079.44	1441.32
1083.83	1538.13
1088.23	1712.76
1092.62	1638.12
1097.01	1539.27
1101.39	1403.3
1105.78	1163.28
1110.16	861.186
1114.54	608.569
1118.92	506.227
1123.29	226.037
1127.67	261.9
1132.04	113.462
1136.4	157.534
1140.77	186.242
1145.13	129.117
1149.49	98.1455
1153.85	8.69336
1158.21	108.167
1162.56	61.3379
1166.91	52.0049
1171.26	50.7266
1175.61	182.714
1179.95	0.373047
1184.29	41.2422
1188.63	73.3154
1192.97	70.3574
1197.3	7.69238
1201.64	60.1816
1205.97	75.3467
1210.29	10.0518
1214.62	13.1152
1218.94	40.4815
1223.26	26.1143
1227.58	6.18457
1231.9	7.35742
1236.21	8.08984
1240.52	200.921
1244.83	265.993
1249.14	6.82715
1253.44	203.894
1257.74	164.337
1262.04	22.7188
1266.34	281.836
1270.64	98.6924
1274.93	198.869
1279.22	184.296
1283.51	178.341
1287.79	94.2959
1292.08	169.546
1296.36	281.578
1300.64	246.946
1304.92	135.397
1309.19	228.025
1313.46	272.3
1317.73	183.494
1322	205.913
1326.27	99.9258
1330.53	109.655
1334.79	115.103
1339.05	126.458
1343.31	92.085
1347.56	145.332
1351.81	272.743
1356.06	34.9238
1360.31	105.311
1364.56	41.876
1368.8	127.547
1373.04	166.485
1377.28	105.194
1381.52	171.54
1385.75	195.142
1389.98	48.5283
1394.21	153.569
1398.44	63.5742
1402.66	110.418
1406.89	100.85
1411.11	211.873
1415.33	0.791016
1419.54	104.936
1423.76	36.5391
1427.97	147.905
1432.18	108.17
1436.39	130.615
1440.59	92.457
1444.8	340.965
1449	298.937
1453.2	304.161
1457.39	353.027
1461.59	337.388
1465.78	209.674
1469.97	266.609
1474.16	292.353
1478.35	234.481
1482.53	133.815
1486.71	179.297
1490.89	71.3457
1495.07	268.56
1499.24	217.455
1503.42	37.7217
1507.59	313.94
1511.76	239.154
1515.92	67.6221
1520.09	263.976
1524.25	215.707
1528.41	165.176
1532.57	171.942
1536.72	205.559
1540.88	228.208
1545.03	201.731
1549.18	152.709
1553.33	67.1455
1557.47	193.511
1561.62	19.4131
1565.76	109.538
1569.89	101.233
1574.03	61.8018
1578.17	0
