Measurement: Raman, 514 nm, ccw, Raman Data Processed
Mineral: Whitlockite
Rruff sample: R070675
Ideal chemistry: Ca_9_Mg(PO_4_)_6_(PO_3_OH)
Locality: Palermo mine, North Groton, New Hampshire, USA
Source: Rock Currier
Description: Colorless blocky modified rhombic crystals
Measured chemistry: (Ca_8.70_Na_0.27_Sr_0.02_Mn_0.01_)_Σ=9_(Mg_0.73_Fe^3+^_0.19_Al_0.08_)_Σ=1_(P_1.00_O_3_((OH)_0.58_F_0.42_)_Σ=1_)(P_1.00_O_4_)_6_; OH estimated by charge balance
Pin_id: M00295
Orientation: Laser parallel to c* (0 0 1). Fiducial mark perpendicular to laser is parallel to a [1 0 0]
Raman shift (cm-1)	intensity
132.388	0
137.342	10.5188
142.294	84.4868
147.242	195.148
152.187	533.793
157.13	711.36
162.069	780.703
167.005	798.751
171.938	914.971
176.868	945.868
181.794	716.921
186.718	364.319
191.639	260.984
196.556	275.938
201.471	203.349
206.382	194.452
211.29	215.441
216.196	314.127
221.098	386.879
225.997	479.697
230.894	476.998
235.787	466.019
240.677	529.904
245.564	594.335
250.448	694.212
255.329	715.685
260.207	737.659
265.082	747.399
269.954	743.232
274.823	789.771
279.689	794.798
284.552	871.146
289.412	715.569
294.269	529.989
299.123	365.727
303.974	286.338
308.822	201.88
313.667	117.495
318.509	80.1033
323.349	0.661133
328.185	5.88989
333.018	0.891113
337.848	43.7024
342.676	2.20557
347.5	57.1328
352.321	59.5022
357.14	59.3401
361.955	67.5991
366.768	39.7571
371.578	15.04
376.384	133.032
381.188	157.576
385.989	347.515
390.787	649.721
395.582	1110.28
400.374	1585.66
405.164	2075.97
409.95	2084.25
414.733	1708.49
419.514	1519.71
424.292	1602.92
429.066	1771.12
433.838	2175.26
438.607	2290.88
443.373	2402.18
448.137	2408.91
452.897	2186.52
457.655	2065.69
462.409	1665.33
467.161	1391.36
471.91	1222.94
476.656	1108.92
481.399	1098.08
486.14	981.378
490.877	702.029
495.612	427.007
500.344	172.183
505.073	162.333
509.799	77.1125
514.523	60.7322
519.243	73.9941
523.961	157.31
528.676	230.388
533.388	380.069
538.097	676.513
542.804	1086.66
547.508	1805.41
552.209	1947.25
556.907	1996.57
561.602	1772.89
566.295	1287.32
570.984	780.52
575.671	524.413
580.356	549.709
585.037	790.757
589.716	1314.77
594.392	1642.5
599.065	1731.41
603.735	2134.67
608.403	1893.14
613.068	1465.15
617.73	1377.35
622.389	1461.28
627.046	1428.06
631.7	1180.54
636.351	659.545
641	328.894
645.645	137.105
650.288	61.9663
654.929	81.9099
659.566	32.8882
664.201	11.0376
668.833	69.1128
673.463	102.667
678.09	63.4468
682.714	38.635
687.335	9.75586
691.954	112.079
696.57	53.3765
701.183	40.0491
705.793	32.179
710.401	65.9131
715.007	126.211
719.609	71.1814
724.209	83.6282
728.806	34.6982
733.401	106.312
737.993	23.4902
742.582	3.79565
747.169	48.3218
751.753	66.9326
756.334	24.0574
760.913	7.63061
765.489	38.6985
770.062	47.5989
774.633	30.4729
779.201	41.9241
783.766	96.0503
788.329	23.7715
792.889	5.32739
797.447	43.0393
802.002	44.8713
806.554	18.3967
811.104	2.94702
815.651	35.8428
820.196	111.856
824.738	51.9946
829.277	35.1296
833.814	29.6135
838.348	12.0361
842.88	66.156
847.409	10.2165
851.935	21.4751
856.459	11.9695
860.98	118.736
865.499	84.7676
870.015	143.014
874.529	43.0562
879.04	60.1934
883.548	119.481
888.054	270.434
892.558	405.79
897.058	555.213
901.557	752.206
906.052	873.08
910.546	1268.01
915.036	2015.3
919.524	3324.37
924.01	4235.74
928.493	2960.01
932.974	1675.4
937.452	1466.24
941.927	2152.38
946.4	3632.79
950.871	7332.86
955.339	18480.5
959.804	38451.7
964.267	53601.8
968.728	53217
973.185	30441.9
977.641	11564.3
982.094	5414.1
986.544	4423.07
990.992	4893.55
995.438	4885.08
999.881	4224.14
1004.32	3288.81
1008.76	2736.07
1013.2	2881.95
1017.63	3268.52
1022.06	3845.73
1026.49	4188.57
1030.91	3796.08
1035.34	2993.4
1039.76	2185.05
1044.18	1717.5
1048.59	1394.02
1053.01	1403.8
1057.42	1624.62
1061.83	1831.51
1066.23	1771.63
1070.64	1663.02
1075.04	1653.31
1079.44	1749.06
1083.83	1959.96
1088.23	2099.6
1092.62	2019.09
1097.01	1639.57
1101.39	1507.61
1105.78	1258.97
1110.16	943.04
1114.54	802.574
1118.92	602.816
1123.29	329.356
1127.67	246.153
1132.04	123.43
1136.4	163.681
1140.77	122.776
1145.13	71.4282
1149.49	151.369
1153.85	89.4482
1158.21	33.4253
1162.56	18.4902
1166.91	55.3633
1171.26	52.4941
1175.61	84.4019
1179.95	21.2114
1184.29	1.29932
1188.63	14.8779
1192.97	24.8765
1197.3	12.7729
1201.64	28.04
1205.97	33.0562
1210.29	21.4121
1214.62	53.1797
1218.94	35.043
1223.26	165.26
1227.58	92.3613
1231.9	91.7978
1236.21	107.592
1240.52	114.632
1244.83	105.325
1249.14	161.908
1253.44	174.255
1257.74	108.595
1262.04	124.459
1266.34	13.8789
1270.64	167.932
1274.93	11.9121
1279.22	63.5962
1283.51	148.61
1287.79	102.487
1292.08	120.692
1296.36	134.328
1300.64	40.6328
1304.92	86.6367
1309.19	100.966
1313.46	32.9429
1317.73	20.6753
1322	81.5923
1326.27	102.918
1330.53	11.562
1334.79	55.5244
1339.05	49.3955
1343.31	22.8809
1347.56	86.7598
1351.81	148.645
1356.06	56.4683
1360.31	105.465
1364.56	125.212
1368.8	42.7368
1373.04	47.1089
1377.28	80.2109
1381.52	39.4448
1385.75	156.098
1389.98	52.3291
1394.21	7.08838
1398.44	104.601
1402.66	91.8096
1406.89	66.1904
1411.11	123.095
1415.33	88.6973
1419.54	97.1699
1423.76	218.62
1427.97	32.6435
1432.18	137.755
1436.39	84.6519
1440.59	133.983
1444.8	161.768
1449	86.9551
1453.2	165.119
1457.39	108.085
1461.59	114.466
1465.78	208.756
1469.97	123.332
1474.16	127.454
1478.35	144.147
1482.53	72.335
1486.71	129.566
1490.89	108.791
1495.07	159.045
1499.24	123.478
1503.42	117.133
1507.59	118.988
1511.76	131.414
1515.92	47.9336
1520.09	44.999
1524.25	50.582
1528.41	66.1602
1532.57	68.7617
1536.72	108.899
1540.88	139.477
1545.03	70.9365
1549.18	53.2041
1553.33	19.8374
1557.47	126.061
1561.62	146.09
1565.76	182.231
1569.89	159.392
1574.03	90.6938
1578.17	0
