Measurement: Raman, 514 nm, ccw, Raman Data Processed
Mineral: Whitlockite
Rruff sample: R070675
Ideal chemistry: Ca_9_Mg(PO_4_)_6_(PO_3_OH)
Locality: Palermo mine, North Groton, New Hampshire, USA
Source: Rock Currier
Description: Colorless blocky modified rhombic crystals
Measured chemistry: (Ca_8.70_Na_0.27_Sr_0.02_Mn_0.01_)_Σ=9_(Mg_0.73_Fe^3+^_0.19_Al_0.08_)_Σ=1_(P_1.00_O_3_((OH)_0.58_F_0.42_)_Σ=1_)(P_1.00_O_4_)_6_; OH estimated by charge balance
Pin_id: M00691
Orientation: Laser parallel to a* (1 0 0). Fiducial mark perpendicular to laser is parallel to c [0 0 1]
Raman shift (cm-1)	intensity
132.388	0
137.342	309.609
142.294	249.174
147.242	430.26
152.187	553.789
157.13	455.88
162.069	235.179
167.005	96.5823
171.938	20.1984
176.868	20.7105
181.794	16.3718
186.718	113.166
191.639	205.442
196.556	191.738
201.471	163.737
206.382	102.206
211.29	185.334
216.196	139.194
221.098	250.054
225.997	194.396
230.894	177.171
235.787	147.868
240.677	208.686
245.564	261.684
250.448	285.266
255.329	516.822
260.207	628.087
265.082	799.132
269.954	903.139
274.823	1199.1
279.689	1674.4
284.552	2220.17
289.412	2438.19
294.269	2161.7
299.123	1809.67
303.974	1371.12
308.822	850.106
313.667	540.204
318.509	311.572
323.349	181.869
328.185	152.314
333.018	95.6372
337.848	50.5798
342.676	17.6118
347.5	22.6744
352.321	15.6787
357.14	3.11292
361.955	28.3212
366.768	1.18701
371.578	17.3501
376.384	36.8291
381.188	53.2144
385.989	55.2576
390.787	177.047
395.582	373.757
400.374	611.985
405.164	786.553
409.95	733.87
414.733	748.184
419.514	955.491
424.292	1282.78
429.066	1448.88
433.838	1529.78
438.607	1343.54
443.373	1184.14
448.137	1037.66
452.897	882.185
457.655	729.717
462.409	549.315
467.161	379.136
471.91	347.102
476.656	221.283
481.399	153.273
486.14	100.849
490.877	11.4418
495.612	34.3815
500.344	30.568
505.073	12.3831
509.799	15.3562
514.523	25.6523
519.243	17.4294
523.961	95.2976
528.676	211.737
533.388	474.965
538.097	802.069
542.804	1254.62
547.508	1770.41
552.209	1964.09
556.907	1260.35
561.602	905.054
566.295	943.373
570.984	975.479
575.671	691.4
580.356	505.65
585.037	506.178
589.716	532.281
594.392	538.636
599.065	618.739
603.735	765.029
608.403	1004.42
613.068	1319.06
617.73	1547.89
622.389	2201.99
627.046	3769.49
631.7	5952.52
636.351	5045.72
641	1826.02
645.645	758.294
650.288	320.663
654.929	276.155
659.566	144.406
664.201	133.776
668.833	126.166
673.463	159.133
678.09	106.679
682.714	64.1045
687.335	90.4502
691.954	103.367
696.57	130.773
701.183	118.49
705.793	85.8767
710.401	69.9334
715.007	46.5862
719.609	85.8506
724.209	43.8086
728.806	39.3909
733.401	1.448
737.993	49.3079
742.582	1.71338
747.169	26.7048
751.753	75.2859
756.334	27.4844
760.913	5.68091
765.489	9.2373
770.062	8.84912
774.633	17.4131
779.201	30.2878
783.766	12.5737
788.329	39.8565
792.889	51.0999
797.447	2.09351
802.002	7.64258
806.554	15.6565
811.104	4.28809
815.651	79.4458
820.196	37.7546
824.738	16.6504
829.277	26.1016
833.814	32.3743
838.348	42.169
842.88	68.2122
847.409	115.337
851.935	275.313
856.459	266.557
860.98	237.69
865.499	207.498
870.015	190.374
874.529	317.079
879.04	357.048
883.548	691.683
888.054	1139.26
892.558	1743.98
897.058	2253.26
901.557	2417.58
906.052	2382.71
910.546	2842.52
915.036	4151.89
919.524	5745.53
924.01	5386.41
928.493	3057.72
932.974	1948.14
937.452	1985.92
941.927	2687.86
946.4	3889.42
950.871	7878.62
955.339	19772.6
959.804	43224.6
964.267	56813.3
968.728	52123.8
973.185	28827.6
977.641	10488.9
982.094	4602.73
986.544	3921.12
990.992	3789.04
995.438	3080.49
999.881	2243.5
1004.32	1594.09
1008.76	1268.25
1013.2	1112
1017.63	1288.33
1022.06	1268.3
1026.49	1216.85
1030.91	809.464
1035.34	609.751
1039.76	689.933
1044.18	628.565
1048.59	593.858
1053.01	481.282
1057.42	520.082
1061.83	732.801
1066.23	1075.32
1070.64	1391.94
1075.04	2160.54
1079.44	3274.81
1083.83	4644.2
1088.23	4733.63
1092.62	3922.48
1097.01	3135.13
1101.39	2838.69
1105.78	2439.56
1110.16	1925.74
1114.54	1375.89
1118.92	873.628
1123.29	581.629
1127.67	406.873
1132.04	269.353
1136.4	207.205
1140.77	131.646
1145.13	83.8386
1149.49	5.33423
1153.85	78.6572
1158.21	32.7107
1162.56	16.3679
1166.91	96.2661
1171.26	25.1541
1175.61	25.5207
1179.95	33.9558
1184.29	51.3635
1188.63	34.772
1192.97	4.5
1197.3	20.4663
1201.64	8.9978
1205.97	38.0151
1210.29	51.2812
1214.62	22.4817
1218.94	62.8577
1223.26	58.4683
1227.58	91.6702
1231.9	79.9895
1236.21	115.426
1240.52	113.142
1244.83	71.3408
1249.14	106.933
1253.44	117.992
1257.74	87.678
1262.04	80.0112
1266.34	105.299
1270.64	121.355
1274.93	64.2163
1279.22	41.0496
1283.51	85.4592
1287.79	92.4578
1292.08	83.2969
1296.36	64.6419
1300.64	31.2356
1304.92	90.0337
1309.19	7.77466
1313.46	35.9565
1317.73	44.9626
1322	57.7852
1326.27	21.0388
1330.53	28.1658
1334.79	66.8245
1339.05	37.8303
1343.31	67.4028
1347.56	5.65869
1351.81	17.929
1356.06	23.6218
1360.31	102.562
1364.56	78.2041
1368.8	110.143
1373.04	104.737
1377.28	23.8323
1381.52	97.7144
1385.75	67.6587
1389.98	43.804
1394.21	65.3369
1398.44	56.8284
1402.66	121.606
1406.89	116.467
1411.11	78.6218
1415.33	44.5071
1419.54	1.48853
1423.76	28.1746
1427.97	103.797
1432.18	63.0142
1436.39	34.3213
1440.59	75.3137
1444.8	117.474
1449	46.2498
1453.2	136.245
1457.39	80.5293
1461.59	73.0115
1465.78	122.052
1469.97	13.581
1474.16	76.8301
1478.35	135.357
1482.53	62.4346
1486.71	71.1992
1490.89	22.2314
1495.07	95.7537
1499.24	104.817
1503.42	96.7737
1507.59	77.0239
1511.76	11.761
1515.92	9.4917
1520.09	128.194
1524.25	17.5061
1528.41	70.0742
1532.57	37.8945
1536.72	90.9785
1540.88	80.5649
1545.03	59.4077
1549.18	17.4902
1553.33	144.071
1557.47	72.2837
1561.62	114.921
1565.76	76.6777
1569.89	106.746
1574.03	42.3286
1578.17	0
