Measurement: Raman, 514 nm, ccw, Raman Data Processed
Mineral: Whitlockite
Rruff sample: R070675
Ideal chemistry: Ca_9_Mg(PO_4_)_6_(PO_3_OH)
Locality: Palermo mine, North Groton, New Hampshire, USA
Source: Rock Currier
Description: Colorless blocky modified rhombic crystals
Measured chemistry: (Ca_8.70_Na_0.27_Sr_0.02_Mn_0.01_)_Σ=9_(Mg_0.73_Fe^3+^_0.19_Al_0.08_)_Σ=1_(P_1.00_O_3_((OH)_0.58_F_0.42_)_Σ=1_)(P_1.00_O_4_)_6_; OH estimated by charge balance
Pin_id: M00295
Orientation: Laser parallel to c* (0 0 1). Fiducial mark perpendicular to laser is parallel to a [1 0 0]
Raman shift (cm-1)	intensity
132.388	0
137.342	5.47168
142.294	102.153
147.242	265.516
152.187	561.121
157.13	788.388
162.069	923.128
167.005	1000.13
171.938	1106.36
176.868	1135.19
181.794	827.192
186.718	399.336
191.639	314.104
196.556	281.114
201.471	300.03
206.382	262.202
211.29	267.998
216.196	369.029
221.098	481.588
225.997	494.794
230.894	587.615
235.787	613.152
240.677	655.737
245.564	772.28
250.448	848.349
255.329	834.373
260.207	808.855
265.082	839.147
269.954	770.198
274.823	839.019
279.689	910.513
284.552	901.402
289.412	696.321
294.269	562.285
299.123	337.82
303.974	308.669
308.822	254.671
313.667	124.69
318.509	109.639
323.349	14.474
328.185	29.8892
333.018	44.599
337.848	59.8496
342.676	36.6958
347.5	25.1511
352.321	22.2118
357.14	33.8086
361.955	15.1295
366.768	0.727783
371.578	96.0339
376.384	171.015
381.188	322.312
385.989	505.735
390.787	833.257
395.582	1354.24
400.374	1905.07
405.164	2406.82
409.95	2437.5
414.733	2130.12
419.514	1773.68
424.292	1859.21
429.066	2017.68
433.838	2398.05
438.607	2652.29
443.373	2722.36
448.137	2834.26
452.897	2715.96
457.655	2383.46
462.409	2014.81
467.161	1623.56
471.91	1367.93
476.656	1319.24
481.399	1369.54
486.14	1180.07
490.877	821.845
495.612	484.715
500.344	266.553
505.073	188.394
509.799	140.731
514.523	138.845
519.243	156.885
523.961	230.022
528.676	295.447
533.388	484.899
538.097	822.88
542.804	1485.49
547.508	2394.07
552.209	2542.19
556.907	2437
561.602	2173.67
566.295	1645.43
570.984	894.005
575.671	561.359
580.356	628.594
585.037	903.249
589.716	1602.53
594.392	1872.67
599.065	2074.46
603.735	2429.29
608.403	2159.04
613.068	1609.65
617.73	1501.81
622.389	1525.59
627.046	1415.91
631.7	1238.79
636.351	727.349
641	198.263
645.645	65.1199
650.288	50.8645
654.929	61.5415
659.566	50.342
664.201	16.5312
668.833	10.7241
673.463	25.7705
678.09	27.4141
682.714	50.706
687.335	59.917
691.954	47.1152
696.57	30.4463
701.183	44.0515
705.793	23.6982
710.401	82.4929
715.007	58.2461
719.609	43.9939
724.209	67.342
728.806	30.3061
733.401	80.8813
737.993	75.0613
742.582	66.7854
747.169	43.1201
751.753	75.9771
756.334	38.3938
760.913	25.8459
765.489	1.69165
770.062	11.8171
774.633	3.96045
779.201	33.1179
783.766	20.5713
788.329	6.02832
792.889	3.51294
797.447	37.157
802.002	9.99805
806.554	1.54175
811.104	42.2451
815.651	17.8767
820.196	9.57446
824.738	15.4636
829.277	18.4685
833.814	29.3677
838.348	27.3684
842.88	1.85522
847.409	48.2207
851.935	56.6995
856.459	65.0781
860.98	139.19
865.499	171.892
870.015	143.457
874.529	69.7283
879.04	127.83
883.548	104.824
888.054	318.133
892.558	595.777
897.058	648.244
901.557	853.828
906.052	953.573
910.546	1255.09
915.036	2148.59
919.524	3596.04
924.01	4403.61
928.493	3188.9
932.974	1729.74
937.452	1597.6
941.927	2283.59
946.4	3687.58
950.871	7856.04
955.339	19254.6
959.804	39522.9
964.267	54972.1
968.728	53650.1
973.185	30524.3
977.641	12036.9
982.094	5796.77
986.544	4723.78
990.992	5138.91
995.438	5262.6
999.881	4657.83
1004.32	3532.61
1008.76	2895.98
1013.2	2867.96
1017.63	3337.56
1022.06	3943.77
1026.49	4303.63
1030.91	3852.3
1035.34	3091.56
1039.76	2221.77
1044.18	1727.21
1048.59	1481.6
1053.01	1389.65
1057.42	1699.06
1061.83	1843.45
1066.23	1900.58
1070.64	1652.4
1075.04	1719.01
1079.44	1887.01
1083.83	2124.86
1088.23	2323.05
1092.62	2157.62
1097.01	1964.58
1101.39	1667.22
1105.78	1296.56
1110.16	1093.72
1114.54	732.976
1118.92	444.651
1123.29	378.605
1127.67	227.805
1132.04	199.241
1136.4	141.893
1140.77	207.696
1145.13	153.133
1149.49	202.806
1153.85	112.484
1158.21	76.1419
1162.56	24.4719
1166.91	84.7017
1171.26	82.7981
1175.61	60.1746
1179.95	71.656
1184.29	25.5952
1188.63	4.67481
1192.97	41.917
1197.3	49.0503
1201.64	27.6462
1205.97	26.4785
1210.29	13.1394
1214.62	9.47778
1218.94	88.8887
1223.26	131.685
1227.58	189.68
1231.9	158.955
1236.21	110.1
1240.52	97.2385
1244.83	192.375
1249.14	118.378
1253.44	124.398
1257.74	76.9751
1262.04	171.411
1266.34	55.8379
1270.64	133.902
1274.93	179.678
1279.22	84.4851
1283.51	65.7212
1287.79	33.53
1292.08	175.915
1296.36	132.936
1300.64	105.446
1304.92	105.493
1309.19	85.478
1313.46	44.9575
1317.73	125.248
1322	20.4102
1326.27	31.0649
1330.53	16.6675
1334.79	15.2068
1339.05	10.3809
1343.31	72.6765
1347.56	83.6746
1351.81	0.815674
1356.06	83.5986
1360.31	31.1392
1364.56	40.5171
1368.8	97.8772
1373.04	47.6457
1377.28	47.3062
1381.52	60.3003
1385.75	39.25
1389.98	92.041
1394.21	27.1033
1398.44	10.1062
1402.66	97.8184
1406.89	77.1484
1411.11	91.3408
1415.33	70.2498
1419.54	82.4556
1423.76	85.4172
1427.97	86.6001
1432.18	156.676
1436.39	159.125
1440.59	152.819
1444.8	120.493
1449	164.345
1453.2	192.67
1457.39	144.727
1461.59	176.605
1465.78	142.284
1469.97	68.7773
1474.16	41.9932
1478.35	61.375
1482.53	106.756
1486.71	65.8447
1490.89	14.4932
1495.07	80.8198
1499.24	54.7451
1503.42	26.312
1507.59	87.4136
1511.76	95.5864
1515.92	87.7993
1520.09	21.2773
1524.25	87.6709
1528.41	50.0894
1532.57	24.7588
1536.72	70.3232
1540.88	124.222
1545.03	107.099
1549.18	22.7578
1553.33	93.1001
1557.47	29.8799
1561.62	80.9727
1565.76	45.852
1569.89	83.0747
1574.03	108.45
1578.17	0
