Measurement: Raman, 514 nm, ccw, Raman Data Processed
Mineral: Witherite
Rruff sample: R040040
Ideal chemistry: BaCO_3_
Locality: Cave-in-Rock, Hardin County, Illinois, USA
Source: University of Arizona Mineral Museum
Description: Tan colored prismatic group of columnar crystals
Measured chemistry: (Ba_0.98_Sr_0.02_)_Î£=1_CO_3_; CO_2_ estimated by difference
Pin_id: L00131
Orientation: Laser parallel to -b* (0 -1 0). Fiducial mark perpendicular to laser is parallel to c [0 0 1]
Raman shift (cm-1)	intensity
106.604	0
110.777	146.618
114.949	255.27
119.119	110.292
123.286	177.471
127.452	484.089
131.615	968.099
135.777	2248.24
139.937	1641.85
144.094	793.476
148.25	630.421
152.403	1052.65
156.555	3156.68
160.705	7252
164.853	2917.18
168.998	846.397
173.142	455.493
177.284	124.573
181.424	246.727
185.562	361.663
189.698	381.176
193.831	172.597
197.963	226.78
202.093	449.517
206.221	262.87
210.347	171.867
214.472	573.433
218.594	726.193
222.714	1094.81
226.832	1578.61
230.948	1242.82
235.063	541.338
239.175	292.16
243.286	432.278
247.394	571.786
251.501	324.488
255.605	178.887
259.708	212.228
263.808	65.187
267.907	364.396
272.004	149.491
276.099	249.051
280.192	347.056
284.283	112.416
288.372	228.713
292.459	555.703
296.544	373.228
300.627	61.912
304.709	200.212
308.788	540.9
312.865	229.698
316.941	118.603
321.015	347.611
325.086	376.75
329.156	22.109
333.224	42.747
337.29	296.73
341.354	346.318
345.416	206.017
349.476	115.765
353.534	394.512
357.591	543.182
361.645	362.038
365.698	121.138
369.748	280.349
373.797	499.718
377.844	279.237
381.889	29.471
385.932	429.195
389.973	609.26
394.012	209.233
398.049	23.759
402.084	244.015
406.118	644.388
410.15	224.875
414.179	55.472
418.207	196.168
422.233	566.967
426.257	392.737
430.279	43.175
434.299	202.172
438.318	603.485
442.334	434.855
446.349	106.362
450.361	248.04
454.372	550.318
458.381	522.985
462.388	157.038
466.394	59.017
470.397	411.056
474.398	494.147
478.398	266.343
482.396	140.486
486.391	184.497
490.385	596.153
494.377	359.14
498.368	31.809
502.356	44.558
506.342	497.378
510.327	484.071
514.31	102.105
518.291	65.191
522.27	340.062
526.247	473.316
530.222	246.644
534.196	90.066
538.167	163.541
542.137	436.983
546.105	440.54
550.071	84.523
554.035	68.877
557.998	304.43
561.958	508.467
565.917	322.116
569.874	36.075
573.829	179.895
577.782	473.742
581.733	517.834
585.683	131.725
589.63	94.007
593.576	120.463
597.52	552.027
601.462	447.175
605.402	21.627
609.341	26.085
613.277	360.544
617.212	465.729
621.145	219.432
625.076	44.074
629.006	86.384
632.933	474.15
636.859	465.236
640.783	279.596
644.705	2.104
648.625	294.485
652.543	379.16
656.46	464.948
660.375	210.188
664.288	45.688
668.199	118.521
672.108	572.466
676.016	666.217
679.921	180.27
683.825	94.011
687.727	892.329
691.628	2790.91
695.526	1130.05
699.423	323.387
703.318	28.13
707.211	151.517
711.102	570.892
714.992	564.328
718.879	337.717
722.765	39.432
726.649	92.874
730.532	546.096
734.412	749.586
738.291	332.689
742.168	81.072
746.043	318.054
749.916	511.119
753.788	673.594
757.658	456.591
761.526	69.282
765.392	122.202
769.257	368.239
773.119	629.943
776.98	520.278
780.839	233.065
784.697	5.433
788.552	287.427
792.406	500.782
796.258	750.899
800.108	430.142
803.957	12.389
807.804	10.698
811.649	452.206
815.492	763.619
819.333	502.524
823.173	83.975
827.011	149.299
830.847	231.63
834.681	662.614
838.514	611.595
842.345	495.977
846.174	36.692
850.001	27.393
853.827	358.535
857.651	768.832
861.473	819.435
865.293	277.482
869.112	88.383
872.928	68.54
876.744	488.842
880.557	789.135
884.369	519.398
888.178	159.615
891.987	49.582
895.793	119.79
899.598	530.065
903.401	740.297
907.202	590.618
911.001	310.196
914.799	30.478
918.595	210.713
922.389	720.88
926.182	840.256
929.972	900.318
933.761	300.104
937.549	10.828
941.334	376.627
945.118	749.952
948.9	850.258
952.681	802.268
956.459	406.597
960.236	106.217
964.012	334.789
967.785	613.779
971.557	864.881
975.327	996.248
979.095	536.008
982.862	43.777
986.627	144.234
990.39	175.387
994.152	791.18
997.912	864.682
1001.67	720.055
1005.43	200.352
1009.18	149.703
1012.93	219.896
1016.68	639.697
1020.43	803.928
1024.18	975.586
1027.93	498.764
1031.67	180.078
1035.42	170.158
1039.16	740.641
1042.9	1011.54
1046.63	1241.61
1050.37	1410.9
1054.11	1373.19
1057.84	6273.63
1061.57	32046.1
1065.3	1735.3
1069.03	1265.21
1072.75	1470.99
1076.47	1300.16
1080.2	519.688
1083.92	208.361
1087.64	236.838
1091.36	416.291
1095.07	774.225
1098.79	1333.63
1102.5	993.166
1106.21	532.16
1109.92	381.119
1113.62	149.451
1117.33	98.373
1121.04	675.656
1124.74	964.031
1128.44	901.385
1132.14	669.014
1135.83	328.164
1139.53	86.057
1143.22	60.061
1146.92	612.553
1150.61	981.111
1154.3	1128.42
1157.98	1026.99
1161.67	552.395
1165.35	38.686
1169.04	18.434
1172.72	242.646
1176.4	417.223
1180.07	964.039
1183.75	1304.94
1187.42	911.141
1191.1	612.949
1194.77	92.541
1198.44	20.104
1202.1	294.871
1205.77	869.566
1209.43	1060.75
1213.1	1211.77
1216.76	972.922
1220.42	784.164
1224.07	314.389
1227.73	404.969
1231.38	453.609
1235.04	813.338
1238.69	1282.93
1242.34	1401.25
1245.99	1258.71
1249.63	1016.58
1253.28	349.348
1256.92	466.66
1260.56	293.428
1264.2	539.566
1267.84	1034.66
1271.48	1317.55
1275.11	1221.9
1278.74	1034.88
1282.38	987.584
1286.01	249.062
1289.63	169.729
1293.26	272.969
1296.89	518.566
1300.51	668.141
1304.13	1309.19
1307.75	1277.17
1311.37	860.432
1314.99	505.965
1318.6	332.264
1322.22	47.344
1325.83	188.594
1329.44	146.291
1333.05	680.016
1336.66	1112.83
1340.26	1346.59
1343.87	1186.76
1347.47	968.771
1351.07	400.605
1354.67	239.412
1358.27	150.965
1361.86	101.84
1365.46	582.758
1369.05	947.416
1372.64	1109.27
1376.23	789.729
1379.82	1305.85
1383.41	1154.5
1386.99	571.629
1390.57	169.514
1394.16	215.869
1397.74	192.176
1401.32	573.086
1404.89	776.963
1408.47	1179.23
1412.04	1744.45
1415.61	1738.76
1419.18	1309.91
1422.75	1416.62
1426.32	666.889
1429.89	129.455
1433.45	57.664
1437.01	24.592
1440.58	280.055
1444.13	723.799
1447.69	1429.26
1451.25	1347.15
1454.81	1636.97
1458.36	1443.19
1461.91	997.49
1465.46	801.281
1469.01	378.754
1472.56	108.1
1476.1	197.35
1479.64	507.357
1483.19	726.41
1486.73	1028.01
1490.27	1610.61
1493.81	2045.15
1497.34	1701.69
1500.88	1453.75
1504.41	1004.33
1507.94	944.451
1511.47	111.197
1515	143.928
1518.53	0
