Measurement: Raman, 514 nm, ccw, Raman Data Processed
Mineral: Witherite
Rruff sample: R040040
Ideal chemistry: BaCO_3_
Locality: Cave-in-Rock, Hardin County, Illinois, USA
Source: University of Arizona Mineral Museum
Description: Tan colored prismatic group of columnar crystals
Measured chemistry: (Ba_0.98_Sr_0.02_)_Î£=1_CO_3_; CO_2_ estimated by difference
Pin_id: L00180
Orientation: Laser parallel to -c* (0 0 -1). Fiducial mark perpendicular to laser is parallel to -a [-1 0 0]
Raman shift (cm-1)	intensity
121.897	0
126.063	47.351
130.228	270.347
134.39	521.883
138.55	445.805
142.709	445.448
146.865	542.873
151.019	780.046
155.171	2082.51
159.322	5859.46
163.47	2587.95
167.617	668.846
171.761	284.856
175.904	210.471
180.044	145.222
184.183	48.948
188.319	154.587
192.454	73.101
196.586	58.026
200.717	61.256
204.846	242.431
208.972	176.322
213.097	345.483
217.22	876.542
221.341	1048.71
225.46	1032.71
229.577	587.156
233.692	359.277
237.805	341.761
241.916	74.625
246.025	99.418
250.132	232.901
254.237	107.712
258.34	31.902
262.442	73.184
266.541	148.077
270.639	14.425
274.734	10.178
278.828	86.098
282.919	72.316
287.009	27.719
291.097	146.777
295.183	127.892
299.266	50.207
303.348	34.196
307.428	29.596
311.507	134.091
315.583	69.087
319.657	4.25
323.729	129.722
327.8	195.473
331.868	71.472
335.935	37.689
339.999	134.112
344.062	90.738
348.123	77.805
352.182	44.95
356.239	83.281
360.294	250.567
364.347	38.013
368.398	6.494
372.448	14.152
376.495	181.86
380.54	0.36
384.584	100.907
388.626	98.815
392.666	203.451
396.704	211.527
400.74	115.33
404.774	29.533
408.806	77.88
412.836	135.3
416.865	24.267
420.891	48.351
424.916	86.966
428.939	195.514
432.959	53.983
436.978	12.595
440.996	231.213
445.011	139.672
449.024	58.278
453.036	206.968
457.045	189.983
461.053	378.814
465.059	103.663
469.063	122.48
473.065	121.397
477.065	289.823
481.063	218.778
485.06	186.235
489.054	185.311
493.047	302.816
497.038	161.753
501.027	141.064
505.014	23.471
508.999	204.045
512.982	343.113
516.964	103.641
520.944	205.14
524.921	213.716
528.897	232.611
532.871	301.451
536.844	50.249
540.814	31.271
544.783	186.833
548.749	255.407
552.714	194.863
556.677	47.591
560.638	28.571
564.597	196.591
568.555	314.4
572.511	32.053
576.464	50.534
580.416	136.856
584.366	283.991
588.315	201.05
592.261	78.034
596.206	104.797
600.148	381.688
604.089	278.435
608.028	303.038
611.965	30.301
615.901	116.199
619.834	332.879
623.766	506.903
627.696	295.289
631.624	253.865
635.551	169.642
639.475	395.539
643.398	500.35
647.318	326.236
651.237	192.118
655.155	288.195
659.07	410.245
662.984	455.458
666.895	220.693
670.805	25.582
674.713	149.132
678.62	324.018
682.524	269.967
686.427	534.005
690.328	3478.82
694.227	673.889
698.124	415.229
702.02	449.975
705.913	34.435
709.805	12.102
713.695	141.33
717.584	374.775
721.47	292.539
725.355	96.205
729.238	30.234
733.119	328.588
736.998	431.445
740.876	454.496
744.752	227.463
748.626	110.67
752.498	113.48
756.368	306.213
760.237	318.869
764.104	111.479
767.969	69.908
771.832	82.363
775.693	284.885
779.553	327.221
783.411	309.441
787.267	191.545
791.122	143.547
794.974	125.486
798.825	197.283
802.674	408.867
806.522	150.383
810.367	98.156
814.211	52.914
818.053	481.16
821.893	431.277
825.732	300.334
829.568	131.785
833.403	7.395
837.236	232.994
841.068	461.736
844.898	543.635
848.726	204.477
852.552	75.281
856.376	226.662
860.199	356.502
864.02	745.639
867.839	608.775
871.656	295.82
875.472	236.664
879.286	237.514
883.098	278.031
886.909	588.766
890.717	639.666
894.524	260.723
898.33	21.764
902.133	172.818
905.935	403.91
909.735	604.924
913.533	385.99
917.33	67.033
921.124	147.883
924.918	118.885
928.709	659.613
932.499	520.42
936.286	519.211
940.073	357.545
943.857	118.518
947.64	259.783
951.421	422.152
955.2	583.02
958.978	483.693
962.753	151.74
966.527	23.182
970.3	34.691
974.071	77.543
977.84	309.791
981.607	491.586
985.372	281.711
989.136	137.199
992.898	186.883
996.659	183.238
1000.42	593.406
1004.17	504.012
1007.93	384.893
1011.68	175.811
1015.43	216.246
1019.18	277.195
1022.93	395.805
1026.68	667.037
1030.42	762.336
1034.17	404.648
1037.91	337.23
1041.65	188.484
1045.39	170.084
1049.12	702.141
1052.86	989.131
1056.59	3880.67
1060.33	28942.3
1064.06	1293.76
1067.78	395.002
1071.51	446.094
1075.23	766.422
1078.96	807.143
1082.68	847.527
1086.4	717.742
1090.12	298.885
1093.83	118.961
1097.55	249.713
1101.26	550.039
1104.97	650.484
1108.68	500.367
1112.39	310.25
1116.1	79.492
1119.8	19.066
1123.5	130.637
1127.2	380.633
1130.9	439.869
1134.6	526.332
1138.3	298.613
1141.99	176.896
1145.69	187.197
1149.38	6.523
1153.07	144.977
1156.76	534.48
1160.44	904.164
1164.13	571.672
1167.81	444.047
1171.49	111.053
1175.17	51.887
1178.85	38.855
1182.52	283.758
1186.2	590.156
1189.87	668.744
1193.54	682.205
1197.21	518.08
1200.88	77.775
1204.55	71.764
1208.21	157.629
1211.88	460.994
1215.54	770.438
1219.2	872.725
1222.86	875.016
1226.51	759.611
1230.17	432.166
1233.82	165.076
1237.47	470.65
1241.12	620.268
1244.77	749.717
1248.42	929.527
1252.06	938.914
1255.71	877.736
1259.35	511.48
1262.99	29.982
1266.63	186.408
1270.26	294.197
1273.9	359.701
1277.53	454.893
1281.16	839.992
1284.8	734.484
1288.42	579.596
1292.05	574.029
1295.68	175.621
1299.3	141.918
1302.92	79.111
1306.55	199.133
1310.16	838.842
1313.78	1127.66
1317.4	1087.49
1321.01	750.783
1324.62	467.396
1328.24	163.537
1331.85	22.006
1335.45	86.914
1339.06	127.33
1342.66	370.336
1346.27	798.033
1349.87	890.945
1353.47	864.451
1357.07	748.396
1360.66	261.514
1364.26	213.955
1367.85	32.377
1371.44	147.783
1375.04	123.861
1378.62	354.826
1382.21	1065.39
1385.8	1205.12
1389.38	1004.88
1392.96	1020.6
1396.54	769.146
1400.12	417.045
1403.7	1.658
1407.28	119.893
1410.85	307.674
1414.42	573.484
1417.99	808.605
1421.56	893.115
1425.13	1222.3
1428.7	868.406
1432.26	1038.31
1435.83	424.619
1439.39	159.291
1442.95	297.264
1446.51	258.121
1450.06	467.605
1453.62	738.902
1457.17	904.793
1460.73	1386.52
1464.28	1529.43
1467.83	1352.06
1471.37	1124.91
1474.92	1085.54
1478.46	777.668
1482.01	386.934
1485.55	19.238
1489.09	223.127
1492.63	350.293
1496.16	852.385
1499.7	1152.09
1503.23	1140.96
1506.76	1400.65
1510.29	1501.9
1513.82	1236.91
