Measurement: Raman, 514 nm, ccw, Raman Data Processed
Mineral: Witherite
Rruff sample: R050148
Ideal chemistry: BaCO_3_
Locality: Settlingstones mine, Fourstones, Northumberland, England
Source: Jim McGlasson
Description: Tan colored crystal fragment
Measured chemistry: (Ba_0.96_Sr_0.04_)CO_3_
Pin_id: L00254
Orientation: Laser parallel to c* (0 0 1). Fiducial mark perpendicular to laser is parallel to a [1 0 0]
Raman shift (cm-1)	intensity
105.505	0
109.694	40.196
113.881	112.001
118.066	249.393
122.249	321.695
126.43	398.804
130.608	591.876
134.785	707.344
138.959	938.954
143.131	1421.19
147.301	1862.04
151.469	2420.61
155.635	4208.12
159.799	4903.63
163.961	3092.32
168.121	1072.49
172.278	561.299
176.434	342.669
180.587	266.469
184.739	205.669
188.888	218.219
193.035	205.972
197.18	205.838
201.324	220.225
205.465	228.145
209.603	412.901
213.74	774.166
217.875	1251.12
222.008	1546.81
226.139	1763.12
230.267	1238.4
234.394	684.919
238.518	428.003
242.641	349.187
246.761	240.362
250.879	141.451
254.996	111.991
259.11	75.511
263.222	108.032
267.332	151.066
271.44	175.903
275.546	62.764
279.65	51.952
283.752	48.286
287.852	38.943
291.95	72.838
296.046	37.536
300.14	7.492
304.231	51.655
308.321	53.611
312.409	0.397
316.495	28.467
320.578	89.882
324.66	69.245
328.739	23.711
332.817	5.453
336.892	11.53
340.966	44.762
345.037	14.379
349.107	31.255
353.174	42.245
357.24	1.575
361.303	1.295
365.365	28.893
369.424	14.223
373.481	15.152
377.537	11.714
381.59	37.696
385.642	23.9
389.691	52.071
393.738	16.547
397.784	2.207
401.827	18.405
405.868	15.88
409.908	7.607
413.945	48.735
417.98	41.83
422.014	25.787
426.045	19.585
430.075	24.557
434.102	26.059
438.127	73.44
442.151	27.981
446.172	15.369
450.192	30.073
454.209	22.947
458.225	3.879
462.238	15.191
466.25	10.383
470.259	58.097
474.267	13.01
478.273	59.189
482.276	1.92
486.278	38.916
490.278	71.793
494.276	40.046
498.271	106.764
502.265	31.716
506.257	65.487
510.247	71.519
514.235	107.893
518.221	85.615
522.205	21.259
526.187	67.45
530.167	37.536
534.145	111.491
538.122	26.869
542.096	38.843
546.068	110.609
550.039	27.192
554.007	85.465
557.973	72.036
561.938	69.729
565.901	60.318
569.861	96.253
573.82	72.595
577.777	29.417
581.732	15.998
585.685	41.287
589.636	53.117
593.585	59.84
597.532	26.029
601.477	20.248
605.42	79.186
609.361	84.542
613.301	97.236
617.238	34.386
621.174	71.813
625.108	70.167
629.039	58.716
632.969	51.835
636.897	111.237
640.823	119.81
644.747	63.841
648.669	1.473
652.589	80.71
656.508	61.92
660.424	70.979
664.339	82.796
668.251	32.324
672.162	116.745
676.071	106.55
679.978	160.395
683.883	248.738
687.786	1910.66
691.687	3784.2
695.586	916.52
699.484	223.484
703.379	48.289
707.273	148.602
711.165	45.434
715.055	24.792
718.943	75.519
722.829	139.839
726.713	86.155
730.595	12.297
734.476	9.784
738.354	40.994
742.231	123.78
746.106	42.366
749.978	116.488
753.849	70.933
757.719	118.806
761.586	82.941
765.451	67.01
769.315	117.04
773.177	71.857
777.036	117.068
780.894	108.446
784.75	37.034
788.605	6.501
792.457	3.759
796.307	67.176
800.156	92.428
804.003	59.221
807.848	94.492
811.691	143.007
815.532	134.276
819.371	43.337
823.209	87.665
827.045	57.532
830.878	63.407
834.71	34.408
838.54	17.528
842.369	80.021
846.195	135.786
850.02	87.473
853.842	81.122
857.663	88.642
861.482	69.065
865.299	35.386
869.115	148.319
872.928	75.78
876.74	74.203
880.55	1.587
884.358	46.138
888.164	63.82
891.969	76.962
895.771	99.379
899.572	79.295
903.371	43.858
907.168	86.273
910.963	152.707
914.757	105.052
918.548	40.121
922.338	36.551
926.126	51.974
929.912	109.383
933.697	38.706
937.479	128.085
941.26	112.473
945.039	80.365
948.816	52.615
952.591	110.667
956.365	131.482
960.136	107.594
963.906	3.375
967.674	21.654
971.441	58.177
975.205	13.375
978.968	56.013
982.729	89.85
986.488	85.036
990.245	89.057
994	57.959
997.754	104.501
1001.51	141.957
1005.26	62.806
1009	117.768
1012.75	177.697
1016.5	120.796
1020.24	101.852
1023.98	86.451
1027.72	187.248
1031.46	208.749
1035.19	106.454
1038.93	526.197
1042.66	197.071
1046.39	271.951
1050.12	541.505
1053.85	1033.5
1057.57	11621
1061.29	39928.6
1065.02	3706.08
1068.74	550.589
1072.45	279.864
1076.17	210.128
1079.88	197.958
1083.6	256.587
1087.31	293.827
1091.02	319.861
1094.72	132.759
1098.43	89.294
1102.13	114.051
1105.84	74.823
1109.54	201.631
1113.24	153.711
1116.93	61.018
1120.63	72.609
1124.32	24.858
1128.01	95.06
1131.7	93.466
1135.39	202.977
1139.08	93.346
1142.76	126.581
1146.45	33.139
1150.13	126.968
1153.81	131.896
1157.48	103.342
1161.16	179.247
1164.84	164.11
1168.51	172.834
1172.18	73.533
1175.85	35.169
1179.52	55.774
1183.18	17.18
1186.85	216.859
1190.51	177.746
1194.17	180.89
1197.83	93.876
1201.48	204.899
1205.14	40.027
1208.79	69.998
1212.44	75.888
1216.09	152.001
1219.74	246.178
1223.39	248.612
1227.03	230.465
1230.68	185.651
1234.32	150.634
1237.96	173.135
1241.6	114.365
1245.23	156.382
1248.87	150.307
1252.5	238.108
1256.13	192.778
1259.76	270.558
1263.39	232.648
1267.02	139.859
1270.64	69.932
1274.26	113.729
1277.88	190.646
1281.5	99.672
1285.12	93.994
1288.74	191.532
1292.35	39.097
1295.96	5.698
1299.57	44
1303.18	22.405
1306.79	44.931
1310.4	47.245
1314	213.115
1317.6	204.241
1321.2	165.862
1324.8	193.521
1328.4	54.08
1331.99	13.296
1335.59	7.052
1339.18	47.597
1342.77	70.804
1346.36	170.059
1349.95	95.131
1353.53	170.422
1357.12	215.435
1360.7	140.501
1364.28	95.586
1367.86	0.671
1371.44	4.148
1375.01	67.214
1378.59	155.448
1382.16	223.292
1385.73	341.438
1389.3	208.896
1392.87	236.404
1396.43	172.668
1399.99	78.026
1403.56	142.378
1407.12	36.709
1410.68	96.213
1414.23	53.478
1417.79	141.145
1421.34	146.729
1424.9	372.84
1428.45	254.499
1431.99	220.02
1435.54	111.812
1439.09	160.506
1442.63	90.467
1446.17	78.449
1449.71	39.092
1453.26	120.032
1456.79	210.423
1460.33	409.326
1463.86	277.669
1467.39	245.539
1470.92	309.849
1474.45	198.437
1477.98	276.547
1481.51	97.354
1485.03	1.599
1488.56	0.63
1492.08	2.048
1495.6	167.051
1499.11	194.533
1502.63	350.593
1506.14	342.075
1509.66	562.585
1513.17	320.396
