Measurement: Raman, 514 nm, ccw, Raman Data Processed
Mineral: Witherite
Rruff sample: R040040
Ideal chemistry: BaCO_3_
Locality: Cave-in-Rock, Hardin County, Illinois, USA
Source: University of Arizona Mineral Museum
Description: Tan colored prismatic group of columnar crystals
Measured chemistry: (Ba_0.98_Sr_0.02_)_Î£=1_CO_3_; CO_2_ estimated by difference
Pin_id: L00241
Orientation: Laser parallel to -a* (-1 0 0). Fiducial mark perpendicular to laser is parallel to -c [0 0 -1]
Raman shift (cm-1)	intensity
91.284	0
95.465	169.619
99.644	291.908
103.82	299.489
107.995	447.774
112.168	616.412
116.339	939.448
120.508	1553.53
124.675	2714.71
128.84	5924.74
133.003	17836.2
137.164	36905.4
141.323	16490.8
145.48	7185.79
149.635	6820.7
153.788	11225.6
157.939	9180.6
162.088	6375.57
166.235	2362.57
170.38	885.667
174.523	624.913
178.664	1589.43
182.803	2508.24
186.94	848.85
191.076	509.489
195.209	611.288
199.34	614.729
203.47	462.517
207.597	411.893
211.722	724.583
215.846	1166.78
219.967	1596.85
224.087	1751.54
228.204	1552.74
232.32	864.974
236.434	563.36
240.545	425.886
244.655	267.552
248.763	158.43
252.869	139.32
256.973	98.972
261.075	56.23
265.175	186.321
269.273	123.146
273.369	107.983
277.463	39.924
281.556	63.514
285.646	163.615
289.734	58.087
293.821	48.151
297.905	58.539
301.988	43.126
306.069	142.582
310.147	9.232
314.224	32.991
318.299	163.334
322.372	63.656
326.443	66.117
330.512	23.593
334.579	60.947
338.645	67.634
342.708	11.759
346.769	148.243
350.829	161.697
354.887	43.083
358.942	20.541
362.996	85.463
367.048	188.341
371.098	140.497
375.146	149.373
379.192	124.307
383.236	242.321
387.279	117.195
391.319	83.047
395.358	42.891
399.394	186.726
403.429	230.694
407.462	100.478
411.493	132.461
415.522	225.186
419.549	188.314
423.575	115.143
427.598	141.154
431.619	251.965
435.639	113.222
439.657	11.95
443.673	54.072
447.687	160.202
451.699	139.521
455.709	66.511
459.717	17.801
463.724	88.688
467.728	149.046
471.731	67.835
475.732	21.95
479.731	80.211
483.728	156.704
487.723	106.207
491.716	50.325
495.708	8.479
499.697	94.62
503.685	202.247
507.671	8.081
511.655	5.844
515.637	196.968
519.617	167.366
523.596	175.76
527.572	14.088
531.547	90.377
535.52	178.618
539.491	305.791
543.46	59.892
547.427	110.922
551.393	87.882
555.356	277.968
559.318	127.78
563.278	93.59
567.236	24.224
571.192	136.89
575.147	171.525
579.099	62.081
583.05	9.894
586.999	95.742
590.946	213.694
594.891	219.795
598.834	35.988
602.776	16.235
606.715	189.812
610.653	132.564
614.589	193.761
618.523	23.028
622.456	75.318
626.386	137.803
630.315	212.33
634.242	31.352
638.167	1.146
642.09	15.436
646.012	247.829
649.931	170.352
653.849	69.309
657.765	114.274
661.679	195.457
665.592	204.697
669.502	213.299
673.411	181.705
677.318	155.756
681.223	111.261
685.126	341.627
689.028	2358.41
692.927	2749.93
696.825	1215.31
700.721	770.374
704.616	270.797
708.508	230.714
712.399	192.527
716.288	169.562
720.175	186.347
724.06	266.349
727.944	327.218
731.825	189.716
735.705	14.621
739.584	81.204
743.46	304.09
747.334	343.703
751.207	155.678
755.078	6.173
758.947	136.946
762.815	240.374
766.68	268.364
770.544	237.232
774.406	148.665
778.267	4.462
782.125	134.857
785.982	336.888
789.837	196.49
793.69	31.298
797.542	17.953
801.391	170.501
805.239	178.333
809.085	194.664
812.93	204.247
816.772	112.832
820.613	62.317
824.452	106.593
828.29	352.175
832.125	232.138
835.959	151.798
839.791	55.973
843.621	156.304
847.45	143.167
851.277	230.088
855.102	187.178
858.925	173.919
862.746	39.673
866.566	106.562
870.384	242.74
874.2	278.891
878.015	82.9
881.828	31.019
885.639	154.611
889.448	227.646
893.256	262.87
897.061	344.399
900.865	139.543
904.668	104.736
908.468	147.956
912.267	63.088
916.064	217.938
919.86	242.946
923.653	207.625
927.445	102.324
931.236	105.733
935.024	260.629
938.811	335.061
942.596	369.455
946.379	191.226
950.161	5.868
953.94	109.305
957.719	194.239
961.495	347.193
965.27	310.402
969.043	274.763
972.814	155.458
976.583	39.814
980.351	10.007
984.117	115.178
987.882	353.812
991.644	314.068
995.405	160.898
999.165	55.683
1002.92	0.647
1006.68	295.689
1010.43	320.167
1014.18	492.225
1017.93	137.797
1021.68	157.204
1025.43	202.227
1029.18	308.766
1032.92	408.326
1036.66	493.543
1040.4	766.355
1044.14	361.026
1047.88	477.971
1051.62	627.061
1055.35	1501.72
1059.08	27766.6
1062.81	23411.2
1066.54	1775.19
1070.27	579.447
1073.99	271.356
1077.72	184.969
1081.44	228.571
1085.16	422.035
1088.88	405.081
1092.59	369.28
1096.31	262.705
1100.02	75.644
1103.73	49.549
1107.44	204.083
1111.15	397.341
1114.86	520.973
1118.57	483.669
1122.27	316.771
1125.97	227.653
1129.67	0.231
1133.37	68.693
1137.07	183.14
1140.76	395.892
1144.45	468.611
1148.15	170.505
1151.84	103.227
1155.53	26.623
1159.21	76.571
1162.9	146.819
1166.58	271.231
1170.26	457.336
1173.94	509.005
1177.62	540.775
1181.3	155.026
1184.97	166.588
1188.65	119.141
1192.32	228.259
1195.99	417.546
1199.66	596.16
1203.33	720.427
1206.99	438.605
1210.65	267.472
1214.32	234.703
1217.98	261.525
1221.64	447.97
1225.29	404.005
1228.95	779.885
1232.6	434.41
1236.26	598.719
1239.91	479.744
1243.56	374.214
1247.2	258.511
1250.85	242.354
1254.49	516.628
1258.13	649.195
1261.78	891.909
1265.41	594.208
1269.05	599.647
1272.69	290.314
1276.32	119.877
1279.95	65.999
1283.59	235.208
1287.21	204.069
1290.84	460.361
1294.47	597.646
1298.09	424.949
1301.72	341.969
1305.34	40.898
1308.96	24.334
1312.58	139.972
1316.19	119.525
1319.81	225.912
1323.42	408.866
1327.03	500.427
1330.64	562.182
1334.25	363.585
1337.86	274.877
1341.46	183.44
1345.07	39.947
1348.67	159.424
1352.27	218.825
1355.87	397.168
1359.46	535.526
1363.06	813.287
1366.65	630.85
1370.25	347.805
1373.84	204.258
1377.43	248.548
1381.02	40.737
1384.6	245.001
1388.18	209.048
1391.77	462.747
1395.35	835.724
1398.93	868.447
1402.51	937.995
1406.08	907.836
1409.66	582.771
1413.23	478.773
1416.8	407.588
1420.37	1502.02
1423.94	2225.98
1427.51	717.066
1431.08	770.25
1434.64	834.23
1438.2	817.094
1441.76	918.623
1445.32	719.938
1448.88	425.33
1452.43	123.082
1455.99	119.068
1459.54	36.826
1463.09	54.846
1466.64	348.658
1470.19	562.996
1473.74	708.229
1477.28	802.912
1480.83	613.811
1484.37	768.363
1487.91	596.188
1491.45	404.258
1494.98	5.059
1498.52	16.984
1502.05	118.217
1505.59	129.068
1509.12	209.51
1512.65	435.111
1516.17	639.43
1519.7	822.453
