Measurement: Raman, 514 nm, ccw, Raman Data Processed
Mineral: Witherite
Rruff sample: R040040
Ideal chemistry: BaCO_3_
Locality: Cave-in-Rock, Hardin County, Illinois, USA
Source: University of Arizona Mineral Museum
Description: Tan colored prismatic group of columnar crystals
Measured chemistry: (Ba_0.98_Sr_0.02_)_Î£=1_CO_3_; CO_2_ estimated by difference
Pin_id: L00131
Orientation: Laser parallel to -b* (0 -1 0). Fiducial mark perpendicular to laser is parallel to c [0 0 1]
Raman shift (cm-1)	intensity
101.036	0
105.212	229.106
109.387	77.004
113.559	489.577
117.729	1178.34
121.897	1239.63
126.063	2186.65
130.228	6784.18
134.39	19837.8
138.55	19995.2
142.709	6098.26
146.865	3407.03
151.019	2304.3
155.171	2339.23
159.322	4022.66
163.47	3405.62
167.617	472.695
171.761	300.117
175.904	610.056
180.044	1666.27
184.183	873.16
188.319	699.104
192.454	519.633
196.586	300.104
200.717	417.023
204.846	629.72
208.972	343.133
213.097	131.213
217.22	564.357
221.341	896.582
225.46	952.194
229.577	608.181
233.692	634.395
237.805	570.838
241.916	97.494
246.025	304.362
250.132	471.604
254.237	369.202
258.34	53.038
262.442	245.038
266.541	107.062
270.639	174.454
274.734	169.697
278.828	257.998
282.919	616.798
287.009	136.481
291.097	96.75
295.183	447.481
299.266	428.539
303.348	299.873
307.428	241.376
311.507	442.859
315.583	514.275
319.657	205.649
323.729	69.086
327.8	180.517
331.868	141.914
335.935	93.271
339.999	199.948
344.062	621.256
348.123	555.817
352.182	164.894
356.239	263.748
360.294	612.786
364.347	671.835
368.398	241.288
372.448	270.528
376.495	629.846
380.54	559.193
384.584	338.494
388.626	211.539
392.666	510.94
396.704	600.914
400.74	180.49
404.774	190.034
408.806	599.707
412.836	691.33
416.865	210.934
420.891	223.627
424.916	556.317
428.939	710.106
432.959	195.805
436.978	66.128
440.996	396.82
445.011	592.068
449.024	389.895
453.036	70.027
457.045	245.748
461.053	669.039
465.059	488.933
469.063	39.162
473.065	99.318
477.065	589.925
481.063	567.087
485.06	108.119
489.054	27.513
493.047	436.11
497.038	793.041
501.027	302.447
505.014	58.257
508.999	361.21
512.982	490.338
516.964	444.574
520.944	104.12
524.921	133.288
528.897	422.746
532.871	531.853
536.844	300.908
540.814	79.91
544.783	298.854
548.749	588.087
552.714	406.816
556.677	45.54
560.638	64.765
564.597	403.11
568.555	633.805
572.511	272.052
576.464	79.579
580.416	191.838
584.366	579.804
588.315	491.392
592.261	99.934
596.206	9.397
600.148	241.797
604.089	720.425
608.028	519.022
611.965	72.287
615.901	59.14
619.834	528.356
623.766	738.765
627.696	366.343
631.624	14.287
635.551	112.017
639.475	619.238
643.398	754.879
647.318	251.586
651.237	11.409
655.155	325.391
659.07	596.782
662.984	672.736
666.895	148.973
670.805	55.119
674.713	303.863
678.62	729.42
682.524	857.601
686.427	516.056
690.328	1951.78
694.227	1927.53
698.124	983.066
702.02	838.315
705.913	320.277
709.805	125.271
713.695	239.233
717.584	751.548
721.47	785.841
725.355	486.833
729.238	139.412
733.119	177.748
736.998	751.381
740.876	902.355
744.752	533.814
748.626	27.134
752.498	200.38
756.368	653.173
760.237	830.391
764.104	542.954
767.969	30.896
771.832	1.871
775.693	570.745
779.553	1022.62
783.411	793.59
787.267	84.58
791.122	134.5
794.974	369.109
798.825	1068.34
802.674	978.701
806.522	416.588
810.367	87.277
814.211	17.46
818.053	627.488
821.893	817.701
825.732	878.102
829.568	348.074
833.403	28.883
837.236	266.516
841.068	1015.08
844.898	1000.3
848.726	659.736
852.552	138.924
856.376	7.412
860.199	605.896
864.02	783.932
867.839	643.008
871.656	430.576
875.472	100.795
879.286	34.484
883.098	511.902
886.909	1010.13
890.717	934.217
894.524	521.664
898.33	115.594
902.133	92.117
905.935	629.271
909.735	992.533
913.533	999.449
917.33	516.146
921.124	10.852
924.918	304.602
928.709	451.283
932.499	1035.17
936.286	982.258
940.073	448.254
943.857	124.832
947.64	341.809
951.421	679.496
955.2	1189.36
958.978	1005.03
962.753	550.875
966.527	257.373
970.3	50.121
974.071	296.994
977.84	854.865
981.607	1032.63
985.372	816.68
989.136	261.996
992.898	115.75
996.659	259.59
1000.42	806.486
1004.17	1443.94
1007.93	960.373
1011.68	585.738
1015.43	40.016
1019.18	135.943
1022.93	434.797
1026.68	1213.3
1030.42	1255.99
1034.17	1108.21
1037.91	734.619
1041.65	271.361
1045.39	443.75
1049.12	859.697
1052.86	1675.06
1056.59	2698.66
1060.33	35183.4
1064.06	2358.78
1067.78	372.93
1071.51	595.91
1075.23	1029.21
1078.96	1402.61
1082.68	1466.07
1086.4	919.1
1090.12	391.105
1093.83	44.445
1097.55	88.443
1101.26	752.611
1104.97	1356.01
1108.68	1248.47
1112.39	999.945
1116.1	532.561
1119.8	22.828
1123.5	15.947
1127.2	648.859
1130.9	1173.3
1134.6	1439.81
1138.3	1064.51
1141.99	898.074
1145.69	10.023
1149.38	181.541
1153.07	80.184
1156.76	879.465
1160.44	1339.08
1164.13	1528.77
1167.81	1042.91
1171.49	502.516
1175.17	81.719
1178.85	62.809
1182.52	373.543
1186.2	999.717
1189.87	1296.32
1193.54	1261.93
1197.21	728.17
1200.88	715.404
1204.55	278.889
1208.21	171.686
1211.88	603.836
1215.54	1015.82
1219.2	1467.25
1222.86	1696.68
1226.51	1216.84
1230.17	788.195
1233.82	782.303
1237.47	422.182
1241.12	709.68
1244.77	1046.62
1248.42	1453.81
1252.06	2127.68
1255.71	1644.9
1259.35	999.645
1262.99	746.555
1266.63	481.373
1270.26	563.705
1273.9	496.275
1277.53	1572.56
1281.16	1802.26
1284.8	1692.49
1288.42	1583.52
1292.05	1003.78
1295.68	29.678
1299.3	196.637
1302.92	86.758
1306.55	141.102
1310.16	656.199
1313.78	1569.26
1317.4	1590.66
1321.01	1223.84
1324.62	1028.06
1328.24	348.672
1331.85	47.92
1335.45	95.617
1339.06	164.631
1342.66	760.873
1346.27	1108.74
1349.87	1725.55
1353.47	1671.14
1357.07	1307.86
1360.66	1003.07
1364.26	588.773
1367.85	284.557
1371.44	190.537
1375.04	476.393
1378.62	949.846
1382.21	1714.81
1385.8	1916.91
1389.38	1890.76
1392.96	1783.1
1396.54	1446.34
1400.12	841.676
1403.7	11.385
1407.28	87.195
1410.85	230.547
1414.42	929.875
1417.99	1943.74
1421.56	4164.44
1425.13	2749.31
1428.7	1838.04
1432.26	1485.13
1435.83	833.215
1439.39	300.979
1442.95	298.359
1446.51	54.191
1450.06	382.09
1453.62	391.83
1457.17	1376.24
1460.73	1783.52
1464.28	2413.25
1467.83	2211.86
1471.37	2131.69
1474.92	1586.12
1478.46	844.031
1482.01	577.527
1485.55	51.729
1489.09	29.277
1492.63	122.969
1496.16	657.293
1499.7	1029.61
1503.23	1565.09
1506.76	2105.02
1510.29	2655.46
1513.82	1982.75
