Measurement: Raman, 514 nm, ccw, Raman Data Processed
Mineral: Witherite
Rruff sample: R050148
Ideal chemistry: BaCO_3_
Locality: Settlingstones mine, Fourstones, Northumberland, England
Source: Jim McGlasson
Description: Tan colored crystal fragment
Measured chemistry: (Ba_0.96_Sr_0.04_)CO_3_
Pin_id: M00097
Orientation: Laser parallel to -b* (0 -1 0). Fiducial mark perpendicular to laser is parallel to c [0 0 1]
Raman shift (cm-1)	intensity
50.765	0
54.966	14.225
59.164	8.934
63.36	10.292
67.554	7.163
71.747	43.132
75.937	99.818
80.125	521.307
84.311	369.994
88.496	517.474
92.678	1478.47
96.858	1225.73
101.036	718.987
105.212	757.103
109.387	450.978
113.559	421.547
117.729	763.751
121.897	386.553
126.063	444.957
130.228	569.887
134.39	921.271
138.55	1533.8
142.709	1380.4
146.865	1114.22
151.019	1261.29
155.171	1807.64
159.322	3113.23
163.47	5126.09
167.617	2887.25
171.761	1012.67
175.904	516.359
180.044	376.3
184.183	376.481
188.319	307.084
192.454	248.703
196.586	250.115
200.717	258.986
204.846	255.196
208.972	289.651
213.097	397.253
217.22	787.678
221.341	1447.12
225.46	1445.41
229.577	1307.08
233.692	882.696
237.805	550.08
241.916	345.56
246.025	259.099
250.132	218.145
254.237	150.177
258.34	130.487
262.442	108.068
266.541	116.788
270.639	77.177
274.734	57.684
278.828	51.336
282.919	43.881
287.009	38.44
291.097	66.133
295.183	54.995
299.266	70.261
303.348	17.575
307.428	1.773
311.507	72.086
315.583	31.456
319.657	17.006
323.729	11.343
327.8	51.411
331.868	16.441
335.935	16.395
339.999	6.808
344.062	43.047
348.123	13.778
352.182	19.047
356.239	48.408
360.294	40.817
364.347	24.514
368.398	17.393
372.448	32.155
376.495	25.375
380.54	20.328
384.584	21.512
388.626	3.943
392.666	36.951
396.704	27.064
400.74	21.312
404.774	20.891
408.806	11.591
412.836	16.819
416.865	32.262
420.891	0.923
424.916	28.682
428.939	39.717
432.959	7.641
436.978	0.627
440.996	5.6
445.011	11.326
449.024	41.251
453.036	1.979
457.045	49.604
461.053	24.103
465.059	43.82
469.063	32.71
473.065	15.169
477.065	55.286
481.063	18.184
485.06	38.99
489.054	28.481
493.047	40.427
497.038	100.503
501.027	14.461
505.014	2.859
508.999	60.611
512.982	41.572
516.964	30.993
520.944	11.958
524.921	5.865
528.897	60.815
532.871	34.759
536.844	24.661
540.814	4.479
544.783	54.814
548.749	95.646
552.714	19.223
556.677	3.869
560.638	64.443
564.597	31.701
568.555	9.569
572.511	44.568
576.464	5.048
580.416	9.923
584.366	71.512
588.315	50.145
592.261	16.051
596.206	11.321
600.148	39.438
604.089	63.78
608.028	74.198
611.965	2.185
615.901	68.151
619.834	60.141
623.766	50.443
627.696	14.678
631.624	12.074
635.551	73.755
639.475	74.125
643.398	90.178
647.318	43.172
651.237	3.232
655.155	86.136
659.07	99.636
662.984	58.976
666.895	42.129
670.805	7.954
674.713	66.678
678.62	55.341
682.524	123.611
686.427	146.289
690.328	905.725
694.227	3093.73
698.124	746.801
702.02	275.316
705.913	109.288
709.805	65.76
713.695	44.739
717.584	53.161
721.47	72.224
725.355	57.921
729.238	32.047
733.119	44.704
736.998	92.449
740.876	52.701
744.752	40.8
748.626	40.331
752.498	54.231
756.368	78.323
760.237	76.831
764.104	56.698
767.969	60.922
771.832	48.952
775.693	6.426
779.553	46.483
783.411	56.127
787.267	4.503
791.122	3.255
794.974	36.453
798.825	94.187
802.674	65.386
806.522	23.486
810.367	30.195
814.211	31.89
818.053	81.97
821.893	64.639
825.732	81.812
829.568	19.424
833.403	13.018
837.236	65.597
841.068	97.146
844.898	90.213
848.726	44.737
852.552	60.264
856.376	35.215
860.199	106.749
864.02	90.3
867.839	73.285
871.656	46.703
875.472	50.113
879.286	9.542
883.098	117.838
886.909	80.222
890.717	49.329
894.524	4.268
898.33	43.11
902.133	60.514
905.935	69.926
909.735	92.344
913.533	76.729
917.33	12.133
921.124	40.281
924.918	64.692
928.709	57.827
932.499	119.251
936.286	40.661
940.073	52.375
943.857	8.467
947.64	73.969
951.421	95.403
955.2	71.86
958.978	70.042
962.753	82.509
966.527	10.023
970.3	5.289
974.071	77.418
977.84	97.897
981.607	91.372
985.372	94.834
989.136	44.318
992.898	14.355
996.659	67.122
1000.42	97.42
1004.17	105.864
1007.93	85.476
1011.68	22.975
1015.43	13.448
1019.18	86.188
1022.93	162.827
1026.68	101.921
1030.42	102.469
1034.17	144.175
1037.91	68.887
1041.65	347.575
1045.39	160.886
1049.12	250.566
1052.86	376.176
1056.59	732.978
1060.33	4940.85
1064.06	47665.3
1067.78	3918.12
1071.51	648.816
1075.23	306.27
1078.96	250.852
1082.68	174.832
1086.4	104.612
1090.12	111.361
1093.83	169.844
1097.55	156.572
1101.26	128.435
1104.97	191.356
1108.68	130.099
1112.39	78.902
1116.1	47.23
1119.8	74.089
1123.5	37.128
1127.2	84.075
1130.9	175.975
1134.6	94.883
1138.3	101.786
1141.99	30.935
1145.69	18.086
1149.38	10.599
1153.07	101.823
1156.76	105.883
1160.44	99.023
1164.13	48.976
1167.81	96.944
1171.49	13.845
1175.17	37.397
1178.85	73.429
1182.52	48.961
1186.2	136.633
1189.87	146.87
1193.54	70.914
1197.21	54.874
1200.88	18.337
1204.55	6.679
1208.21	18.219
1211.88	119.523
1215.54	179.68
1219.2	131.995
1222.86	109.421
1226.51	10.999
1230.17	36.573
1233.82	59.15
1237.47	38.332
1241.12	104.259
1244.77	111.398
1248.42	155.277
1252.06	122.124
1255.71	125.037
1259.35	83.822
1262.99	31.795
1266.63	17.983
1270.26	49.499
1273.9	138.88
1277.53	168.262
1281.16	130.581
1284.8	122.796
1288.42	47.957
1292.05	64.216
1295.68	48.519
1299.3	15.243
1302.92	29.085
1306.55	73.989
1310.16	85.813
1313.78	112.539
1317.4	113.886
1321.01	89.939
1324.62	68.046
1328.24	31.265
1331.85	1.656
1335.45	30.353
1339.06	59.555
1342.66	208.162
1346.27	144.821
1349.87	169.357
1353.47	66.462
1357.07	2.365
1360.66	34.204
1364.26	17.04
1367.85	51.299
1371.44	51.33
1375.04	86.363
1378.62	148.316
1382.21	172.138
1385.8	144.855
1389.38	230.277
1392.96	109.686
1396.54	74.909
1400.12	95.184
1403.7	30.518
1407.28	120.943
1410.85	158.828
1414.42	239.942
1417.99	289.737
1421.56	315.677
1425.13	546.992
1428.7	367.96
1432.26	108.975
1435.83	22.675
1439.39	20.867
1442.95	65.566
1446.51	128.352
1450.06	156.771
1453.62	130.117
1457.17	220.904
1460.73	169.858
1464.28	226.578
1467.83	171.42
1471.37	111.263
1474.92	76.46
1478.46	23.675
1482.01	2.643
1485.55	74.908
1489.09	164.824
1492.63	163.847
1496.16	191.588
1499.7	205.074
1503.23	186.204
