Measurement: Raman, 514 nm, ccw, Raman Data Processed
Mineral: Witherite
Rruff sample: R050148
Ideal chemistry: BaCO_3_
Locality: Settlingstones mine, Fourstones, Northumberland, England
Source: Jim McGlasson
Description: Tan colored crystal fragment
Measured chemistry: (Ba_0.96_Sr_0.04_)CO_3_
Pin_id: M00097
Orientation: Laser parallel to -b* (0 -1 0). Fiducial mark perpendicular to laser is parallel to c [0 0 1]
Raman shift (cm-1)	intensity
101.036	0
105.212	59.138
109.387	4.4
113.559	152.804
117.729	434.207
121.897	555.879
126.063	622.811
130.228	1146.1
134.39	2477.2
138.55	4794.17
142.709	5161.15
146.865	6293.63
151.019	6440.18
155.171	4609.82
159.322	3499.39
163.47	1873.56
167.617	750.627
171.761	339.544
175.904	154.647
180.044	132.44
184.183	197.858
188.319	180.001
192.454	1.684
196.586	27.732
200.717	68.764
204.846	82.967
208.972	89.376
213.097	16.114
217.22	55.442
221.341	134.318
225.46	176.64
229.577	319.916
233.692	259.288
237.805	70.802
241.916	39.22
246.025	4.267
250.132	74.261
254.237	10.212
258.34	26.045
262.442	6.612
266.541	0.141
270.639	40.361
274.734	9.061
278.828	34.949
282.919	45.906
287.009	32.06
291.097	45.59
295.183	65.907
299.266	2.583
303.348	44.02
307.428	8.468
311.507	2.994
315.583	8.41
319.657	76.013
323.729	17.397
327.8	123.746
331.868	3.011
335.935	31.195
339.999	5.399
344.062	42.785
348.123	52.765
352.182	88.531
356.239	55.206
360.294	64.938
364.347	78.412
368.398	63.239
372.448	109.742
376.495	94.347
380.54	86.175
384.584	88.721
388.626	117.995
392.666	156.905
396.704	117.192
400.74	104.493
404.774	113.316
408.806	132.708
412.836	84.25
416.865	70.315
420.891	47.34
424.916	128.049
428.939	159.369
432.959	69.109
436.978	18.623
440.996	125.525
445.011	118.828
449.024	151.716
453.036	45.352
457.045	75.231
461.053	153.646
465.059	88.025
469.063	126.065
473.065	13.914
477.065	153.903
481.063	107.609
485.06	100.828
489.054	1.435
493.047	105.059
497.038	110.865
501.027	25.258
505.014	29.435
508.999	90.685
512.982	87.864
516.964	121.324
520.944	128.257
524.921	14.931
528.897	101.53
532.871	94.793
536.844	25.297
540.814	31.594
544.783	91.782
548.749	156.854
552.714	68.844
556.677	9.852
560.638	55.029
564.597	75.278
568.555	174.659
572.511	54.593
576.464	97.459
580.416	83.458
584.366	158.307
588.315	75.217
592.261	26.346
596.206	79.587
600.148	79.813
604.089	137.841
608.028	99.342
611.965	96.189
615.901	0.961
619.834	154.821
623.766	83.526
627.696	68.405
631.624	62.205
635.551	92.547
639.475	154.495
643.398	195.798
647.318	85.465
651.237	58.609
655.155	157.164
659.07	130.728
662.984	160.048
666.895	47.713
670.805	29.369
674.713	173.555
678.62	182.933
682.524	73.289
686.427	14.661
690.328	49.612
694.227	232.479
698.124	427.47
702.02	359.273
705.913	208.399
709.805	54.619
713.695	42.725
717.584	14.526
721.47	211.466
725.355	26.162
729.238	121.075
733.119	29.687
736.998	93.699
740.876	119.038
744.752	56.551
748.626	58.357
752.498	118.185
756.368	137.711
760.237	149.82
764.104	85.612
767.969	98.679
771.832	70.747
775.693	141.418
779.553	234.739
783.411	101.373
787.267	23.134
791.122	41.416
794.974	86.887
798.825	135.318
802.674	156.593
806.522	35.723
810.367	77.87
814.211	161.745
818.053	212.684
821.893	173.202
825.732	80.17
829.568	12.115
833.403	11.553
837.236	111.342
841.068	210.547
844.898	173.234
848.726	164.578
852.552	128.211
856.376	39.55
860.199	192.239
864.02	252.749
867.839	91.195
871.656	150.536
875.472	77.077
879.286	28.938
883.098	138.035
886.909	186.677
890.717	63.678
894.524	25.545
898.33	0.855
902.133	147.23
905.935	210.189
909.735	222.148
913.533	120.306
917.33	55.889
921.124	95.986
924.918	77.058
928.709	87.138
932.499	191.183
936.286	189.097
940.073	46.178
943.857	14.274
947.64	56.708
951.421	158.822
955.2	234.696
958.978	231.658
962.753	98.34
966.527	45.444
970.3	2.305
974.071	76.657
977.84	193.643
981.607	131.255
985.372	168.575
989.136	25.872
992.898	63.768
996.659	140.838
1000.42	178.408
1004.17	237.483
1007.93	238.768
1011.68	125.86
1015.43	102.502
1019.18	153.561
1022.93	171.116
1026.68	323.562
1030.42	261.433
1034.17	185.649
1037.91	163.159
1041.65	490.023
1045.39	296.735
1049.12	413.433
1052.86	710.684
1056.59	908.375
1060.33	5345.76
1064.06	46722.7
1067.78	3490.08
1071.51	696.562
1075.23	493.609
1078.96	560.163
1082.68	477.183
1086.4	274.327
1090.12	50.821
1093.83	157.676
1097.55	154.725
1101.26	341.037
1104.97	467.65
1108.68	304.651
1112.39	150.86
1116.1	27.154
1119.8	153.242
1123.5	168.375
1127.2	104.041
1130.9	331.296
1134.6	287.685
1138.3	343.332
1141.99	124.54
1145.69	8.116
1149.38	85.631
1153.07	260.728
1156.76	438.72
1160.44	324.821
1164.13	454.608
1167.81	60.744
1171.49	216.317
1175.17	1.305
1178.85	136.181
1182.52	271.175
1186.2	475.553
1189.87	370.371
1193.54	336.223
1197.21	94.019
1200.88	8.659
1204.55	51.477
1208.21	214.91
1211.88	238.217
1215.54	421.04
1219.2	423.262
1222.86	417.076
1226.51	149.75
1230.17	104.557
1233.82	333.364
1237.47	194.368
1241.12	404.887
1244.77	425.698
1248.42	546.351
1252.06	486.002
1255.71	265.916
1259.35	236.509
1262.99	217.14
1266.63	156.083
1270.26	285.335
1273.9	394.073
1277.53	690.179
1281.16	667.047
1284.8	363.792
1288.42	98.756
1292.05	124.238
1295.68	24.921
1299.3	11.437
1302.92	162.243
1306.55	357.381
1310.16	192.217
1313.78	312.26
1317.4	295.879
1321.01	167.679
1324.62	180.303
1328.24	74.824
1331.85	46.152
1335.45	58.745
1339.06	172.958
1342.66	392.935
1346.27	442.235
1349.87	462.367
1353.47	251.979
1357.07	119.769
1360.66	166.184
1364.26	159.086
1367.85	266.286
1371.44	61.501
1375.04	156.343
1378.62	460.778
1382.21	454.353
1385.8	558.135
1389.38	601.304
1392.96	372.496
1396.54	184.293
1400.12	62.778
1403.7	40.043
1407.28	272.731
1410.85	243.098
1414.42	528.319
1417.99	703.56
1421.56	948.791
1425.13	1676.65
1428.7	911.042
1432.26	403.188
1435.83	233.855
1439.39	54.701
1442.95	166.066
1446.51	437.301
1450.06	455.859
1453.62	521.543
1457.17	604.763
1460.73	689.971
1464.28	634.658
1467.83	381.598
1471.37	337.161
1474.92	18.249
1478.46	29.029
1482.01	199.565
1485.55	243.379
1489.09	343.593
1492.63	429.709
1496.16	421.704
1499.7	551.4
1503.23	567.838
