Measurement: Raman, 514 nm, ccw, Raman Data Processed
Mineral: Witherite
Rruff sample: R050148
Ideal chemistry: BaCO_3_
Locality: Settlingstones mine, Fourstones, Northumberland, England
Source: Jim McGlasson
Description: Tan colored crystal fragment
Measured chemistry: (Ba_0.96_Sr_0.04_)CO_3_
Pin_id: M00358
Orientation: Laser parallel to a* (1 0 0). Fiducial mark perpendicular to laser is parallel to -b [0 -1 0]
Raman shift (cm-1)	intensity
50.765	0
54.966	52.295
59.164	28.75
63.36	24.008
67.554	11.583
71.747	21.991
75.937	80.33
80.125	460.781
84.311	559.794
88.496	612.989
92.678	1195.1
96.858	1348.87
101.036	1032.98
105.212	1311.23
109.387	880.524
113.559	853.775
117.729	869.943
121.897	902.987
126.063	877.873
130.228	1050.58
134.39	1310.06
138.55	2225.93
142.709	2292.99
146.865	1984.21
151.019	2156.73
155.171	2844.65
159.322	4296.98
163.47	6689.76
167.617	4281.98
171.761	1661.63
175.904	941.747
180.044	705.38
184.183	679.468
188.319	580.988
192.454	533.93
196.586	542.33
200.717	540.19
204.846	545.54
208.972	525.281
213.097	567.381
217.22	801.481
221.341	1324.83
225.46	1624.99
229.577	1898.42
233.692	1433.99
237.805	920.993
241.916	622.661
246.025	472.848
250.132	430.486
254.237	288.556
258.34	322.014
262.442	240.877
266.541	248.103
270.639	202.177
274.734	165.07
278.828	156.379
282.919	176.905
287.009	134.711
291.097	149.786
295.183	167.379
299.266	181.122
303.348	138.991
307.428	79.1
311.507	87.059
315.583	172.633
319.657	88.467
323.729	34.875
327.8	98.294
331.868	101.413
335.935	42.398
339.999	69.315
344.062	53.113
348.123	67.999
352.182	26.177
356.239	59.393
360.294	49.943
364.347	95.026
368.398	44.27
372.448	37.199
376.495	89.219
380.54	78.961
384.584	54.392
388.626	22.536
392.666	41.865
396.704	87.385
400.74	22.785
404.774	14.327
408.806	38.481
412.836	71.83
416.865	37.46
420.891	9.31
424.916	41.9
428.939	38.888
432.959	9.536
436.978	8.815
440.996	24.542
445.011	11.125
449.024	51.748
453.036	29.643
457.045	14.389
461.053	76.61
465.059	42.743
469.063	22.001
473.065	30.542
477.065	72.415
481.063	11.996
485.06	8.618
489.054	16.87
493.047	11.305
497.038	49.3
501.027	42.939
505.014	38.135
508.999	22.466
512.982	17.948
516.964	52.228
520.944	45.982
524.921	26.773
528.897	20.607
532.871	60.476
536.844	19.31
540.814	31.846
544.783	78.949
548.749	68.751
552.714	51.574
556.677	31.79
560.638	5.422
564.597	52.467
568.555	35.79
572.511	51.78
576.464	18.117
580.416	25.271
584.366	42.217
588.315	113.271
592.261	17.389
596.206	61.869
600.148	67.449
604.089	50.059
608.028	71.514
611.965	8.087
615.901	29.049
619.834	93.358
623.766	126.719
627.696	63.853
631.624	19.543
635.551	33.033
639.475	111.814
643.398	126.205
647.318	76.549
651.237	65.121
655.155	79.229
659.07	151.235
662.984	100.607
666.895	14.602
670.805	17.281
674.713	148.885
678.62	127.809
682.524	150.32
686.427	111.582
690.328	621.465
694.227	3779.36
698.124	1084.57
702.02	351.463
705.913	184.676
709.805	23.867
713.695	44.022
717.584	31.012
721.47	122.909
725.355	87.086
729.238	17.138
733.119	24.336
736.998	29.313
740.876	113.312
744.752	57.926
748.626	63.575
752.498	41.103
756.368	109.607
760.237	108.965
764.104	44.36
767.969	42.622
771.832	25.915
775.693	10.247
779.553	88.326
783.411	128.321
787.267	9.556
791.122	46.265
794.974	75.677
798.825	87.457
802.674	94.381
806.522	39.278
810.367	27.162
814.211	46.018
818.053	122.624
821.893	88.876
825.732	57.207
829.568	60.896
833.403	84.648
837.236	47.374
841.068	98.073
844.898	146.754
848.726	130.082
852.552	137.797
856.376	61.533
860.199	108.259
864.02	133.592
867.839	83.925
871.656	22.669
875.472	0.617
879.286	15.588
883.098	61.579
886.909	118.454
890.717	55.296
894.524	34.971
898.33	68.278
902.133	27.983
905.935	110.685
909.735	96.386
913.533	124.994
917.33	23.73
921.124	56.481
924.918	51.086
928.709	111.425
932.499	128.451
936.286	56.69
940.073	21.638
943.857	44.607
947.64	74.095
951.421	97.517
955.2	112.23
958.978	94.961
962.753	116.675
966.527	13.368
970.3	5.586
974.071	124.164
977.84	171.046
981.607	120.858
985.372	110.757
989.136	2.642
992.898	45.707
996.659	7.782
1000.42	112.595
1004.17	175.509
1007.93	134.967
1011.68	35.873
1015.43	18.999
1019.18	48.551
1022.93	178.218
1026.68	208.305
1030.42	181.75
1034.17	146.976
1037.91	169.472
1041.65	403.771
1045.39	266.235
1049.12	353.603
1052.86	541.919
1056.59	811.367
1060.33	4559.98
1064.06	53541.4
1067.78	4582.01
1071.51	644.374
1075.23	427.618
1078.96	391.093
1082.68	262.764
1086.4	256.394
1090.12	144.912
1093.83	79.324
1097.55	147.317
1101.26	188.997
1104.97	281.511
1108.68	208.017
1112.39	161.633
1116.1	5.59
1119.8	94.895
1123.5	30.858
1127.2	102.544
1130.9	181.176
1134.6	221.134
1138.3	201.576
1141.99	75.962
1145.69	19.387
1149.38	39.587
1153.07	72.338
1156.76	154.449
1160.44	187.856
1164.13	234.769
1167.81	80.965
1171.49	120.879
1175.17	15.882
1178.85	54.115
1182.52	143.437
1186.2	260.88
1189.87	233.085
1193.54	226.865
1197.21	78.998
1200.88	49.752
1204.55	11.331
1208.21	86.099
1211.88	84.564
1215.54	216.49
1219.2	303.926
1222.86	220.034
1226.51	118.48
1230.17	69.063
1233.82	148.379
1237.47	40.143
1241.12	147.959
1244.77	192.742
1248.42	299.757
1252.06	244.688
1255.71	138.47
1259.35	85.82
1262.99	90.451
1266.63	21.731
1270.26	132.346
1273.9	163.883
1277.53	304.828
1281.16	338.488
1284.8	235.074
1288.42	139.857
1292.05	170.139
1295.68	10.326
1299.3	35.999
1302.92	0.528
1306.55	113.415
1310.16	103.983
1313.78	151.213
1317.4	300.642
1321.01	199.009
1324.62	142.822
1328.24	25.633
1331.85	44.717
1335.45	26.919
1339.06	174.944
1342.66	139.019
1346.27	270.559
1349.87	252.404
1353.47	146.089
1357.07	80.927
1360.66	89.112
1364.26	75.691
1367.85	81.011
1371.44	78.949
1375.04	48.765
1378.62	213.068
1382.21	251.925
1385.8	275.185
1389.38	333.998
1392.96	173.965
1396.54	126.576
1400.12	24.385
1403.7	67.42
1407.28	145.506
1410.85	158.938
1414.42	254.303
1417.99	291.667
1421.56	427.342
1425.13	682.903
1428.7	484.506
1432.26	214.772
1435.83	141.899
1439.39	20.438
1442.95	91.212
1446.51	173.928
1450.06	244.869
1453.62	240.986
1457.17	264.972
1460.73	324.757
1464.28	381.569
1467.83	269.227
1471.37	242.109
1474.92	86.056
1478.46	48.503
1482.01	18.653
1485.55	86.038
1489.09	63.592
1492.63	198.839
1496.16	175.601
1499.7	359.625
1503.23	322.004
1506.76	0
