Measurement: Raman, 514 nm, ccw, Raman Data Processed
Mineral: Witherite
Rruff sample: R050148
Ideal chemistry: BaCO_3_
Locality: Settlingstones mine, Fourstones, Northumberland, England
Source: Jim McGlasson
Description: Tan colored crystal fragment
Measured chemistry: (Ba_0.96_Sr_0.04_)CO_3_
Pin_id: M00358
Orientation: Laser parallel to a* (1 0 0). Fiducial mark perpendicular to laser is parallel to -b [0 -1 0]
Raman shift (cm-1)	intensity
50.765	0
54.966	74.056
59.164	108.882
63.36	13.174
67.554	3.046
71.747	11.956
75.937	193.704
80.125	1654.87
84.311	1054.43
88.496	1081.71
92.678	1158.2
96.858	1290.46
101.036	1476.93
105.212	1674.3
109.387	1611.38
113.559	1733.07
117.729	1801.25
121.897	2086.84
126.063	2160.78
130.228	2674.03
134.39	3834.49
138.55	6813.57
142.709	7341.77
146.865	7695.29
151.019	8578.39
155.171	7203.16
159.322	6868.6
163.47	3677.8
167.617	2031.78
171.761	1300.45
175.904	1091.78
180.044	967.777
184.183	1067.42
188.319	964.691
192.454	797.665
196.586	814.447
200.717	759.894
204.846	730.943
208.972	693.597
213.097	595.887
217.22	631.073
221.341	698.352
225.46	761.945
229.577	885.796
233.692	893.616
237.805	681.221
241.916	547.883
246.025	462.145
250.132	493.481
254.237	403.09
258.34	388.424
262.442	289.071
266.541	368.355
270.639	332.227
274.734	275.51
278.828	259.919
282.919	307.176
287.009	265.865
291.097	229.783
295.183	199.267
299.266	208.335
303.348	204.587
307.428	172.752
311.507	190.715
315.583	210.388
319.657	128.038
323.729	39.18
327.8	147.009
331.868	187.049
335.935	139.979
339.999	37.422
344.062	112.924
348.123	158.445
352.182	58.873
356.239	92.405
360.294	136.552
364.347	127.304
368.398	86.051
372.448	49.423
376.495	123.548
380.54	96.411
384.584	40.995
388.626	101.426
392.666	131.089
396.704	156.128
400.74	16.454
404.774	51.538
408.806	62.432
412.836	50.552
416.865	9.279
420.891	29.133
424.916	43.049
428.939	94.172
432.959	56.942
436.978	55.479
440.996	40.469
445.011	77.08
449.024	40.767
453.036	1.476
457.045	15.016
461.053	98.3
465.059	45.465
469.063	22.378
473.065	19.698
477.065	55.636
481.063	121.163
485.06	10.791
489.054	65.09
493.047	69.59
497.038	143.052
501.027	28.749
505.014	31.477
508.999	416.256
512.982	58.32
516.964	98.236
520.944	26.245
524.921	50.863
528.897	52.479
532.871	124.182
536.844	40.96
540.814	33.193
544.783	116.6
548.749	147.389
552.714	27.076
556.677	23.831
560.638	19.766
564.597	57.761
568.555	110.157
572.511	124.331
576.464	16.125
580.416	1.283
584.366	106.638
588.315	128.416
592.261	35.017
596.206	22.949
600.148	112.868
604.089	195.412
608.028	125.671
611.965	28.002
615.901	9.823
619.834	106.322
623.766	220.869
627.696	158.774
631.624	41.506
635.551	122.438
639.475	217.363
643.398	232.849
647.318	131.242
651.237	30.398
655.155	161.236
659.07	205.355
662.984	136.399
666.895	124.992
670.805	61.263
674.713	147.494
678.62	187.201
682.524	235.235
686.427	27.03
690.328	95.921
694.227	179.181
698.124	555.146
702.02	486.919
705.913	202.41
709.805	3.972
713.695	38.193
717.584	121.145
721.47	210.558
725.355	104.55
729.238	36.58
733.119	6.333
736.998	188.579
740.876	149.476
744.752	103.652
748.626	4.195
752.498	55.406
756.368	119.646
760.237	202.633
764.104	179.536
767.969	50.762
771.832	3.231
775.693	105.178
779.553	179.87
783.411	205.78
787.267	67.8
791.122	8.259
794.974	72.848
798.825	254.728
802.674	180.953
806.522	89.349
810.367	28.479
814.211	28.577
818.053	163.668
821.893	198.182
825.732	210.542
829.568	84.415
833.403	54.799
837.236	94.246
841.068	271.204
844.898	223.014
848.726	196.183
852.552	141.791
856.376	45.384
860.199	173.966
864.02	273.461
867.839	235.059
871.656	173.72
875.472	27.117
879.286	37.519
883.098	114.56
886.909	250.94
890.717	202.686
894.524	125.234
898.33	52.195
902.133	191.861
905.935	130.2
909.735	238.747
913.533	171.556
917.33	103.562
921.124	10.567
924.918	94.84
928.709	172.186
932.499	238.531
936.286	141.871
940.073	61.852
943.857	3.411
947.64	34.856
951.421	292.127
955.2	230.997
958.978	189.768
962.753	97.502
966.527	6.67
970.3	27.336
974.071	171.174
977.84	262.437
981.607	172.794
985.372	144.235
989.136	15.508
992.898	29.922
996.659	109.348
1000.42	211.958
1004.17	354.736
1007.93	270.439
1011.68	124.776
1015.43	33.054
1019.18	22.407
1022.93	125.36
1026.68	380.377
1030.42	285.331
1034.17	272.541
1037.91	66.472
1041.65	417.998
1045.39	251.911
1049.12	391.696
1052.86	606.541
1056.59	861.66
1060.33	3895.62
1064.06	48613.8
1067.78	3842.45
1071.51	689.951
1075.23	539.895
1078.96	617.852
1082.68	370.388
1086.4	241.264
1090.12	50.078
1093.83	155.245
1097.55	220.3
1101.26	287.044
1104.97	340.906
1108.68	359.817
1112.39	196.991
1116.1	47.819
1119.8	28.84
1123.5	108.441
1127.2	160.388
1130.9	338.503
1134.6	292.702
1138.3	231.016
1141.99	89.174
1145.69	0.186
1149.38	60.954
1153.07	165.027
1156.76	253.082
1160.44	279.377
1164.13	304.965
1167.81	67.988
1171.49	104.684
1175.17	2.029
1178.85	156.007
1182.52	358.059
1186.2	316.695
1189.87	403.259
1193.54	375.815
1197.21	162.103
1200.88	35.488
1204.55	76.389
1208.21	96.382
1211.88	244.931
1215.54	325.868
1219.2	488.615
1222.86	372.613
1226.51	216.61
1230.17	121.882
1233.82	181.111
1237.47	119.507
1241.12	306.785
1244.77	374.264
1248.42	532.131
1252.06	470.284
1255.71	323.452
1259.35	79.449
1262.99	133.082
1266.63	143.263
1270.26	170.193
1273.9	322.459
1277.53	487.982
1281.16	588.177
1284.8	427.283
1288.42	247.686
1292.05	150.973
1295.68	24.986
1299.3	51.374
1302.92	133.2
1306.55	237.102
1310.16	236.45
1313.78	413.539
1317.4	286.738
1321.01	209.413
1324.62	290.745
1328.24	80.975
1331.85	41.81
1335.45	27.608
1339.06	215.903
1342.66	437.87
1346.27	495.716
1349.87	392.349
1353.47	305.726
1357.07	137.627
1360.66	151.531
1364.26	34.947
1367.85	81.781
1371.44	136.086
1375.04	167.257
1378.62	432.006
1382.21	392.874
1385.8	493.267
1389.38	517.801
1392.96	301.342
1396.54	179.525
1400.12	30.656
1403.7	87.145
1407.28	236.684
1410.85	187.069
1414.42	393.726
1417.99	609.532
1421.56	851.597
1425.13	1555.74
1428.7	950.399
1432.26	472.571
1435.83	228.392
1439.39	12.839
1442.95	95.027
1446.51	235.907
1450.06	363.854
1453.62	518.557
1457.17	604.108
1460.73	637.329
1464.28	724.373
1467.83	401.201
1471.37	296.854
1474.92	105.254
1478.46	7.133
1482.01	29.087
1485.55	82.61
1489.09	230.684
1492.63	289.398
1496.16	465.574
1499.7	610.214
1503.23	0
