Measurement: Raman, 514 nm, ccw, Raman Data Processed
Mineral: Witherite
Rruff sample: R050148
Ideal chemistry: BaCO_3_
Locality: Settlingstones mine, Fourstones, Northumberland, England
Source: Jim McGlasson
Description: Tan colored crystal fragment
Measured chemistry: (Ba_0.96_Sr_0.04_)CO_3_
Pin_id: M00097
Orientation: Laser parallel to -b* (0 -1 0). Fiducial mark perpendicular to laser is parallel to c [0 0 1]
Raman shift (cm-1)	intensity
75.937	0
80.125	336.306
84.311	655.278
88.496	134.763
92.678	665.68
96.858	664.157
101.036	502.668
105.212	561.805
109.387	416.401
113.559	624.027
117.729	1262.65
121.897	1029.73
126.063	1473.65
130.228	3156.57
134.39	7837.94
138.55	17726.3
142.709	16516.7
146.865	8678.64
151.019	8081.16
155.171	12904.1
159.322	14517.5
163.47	8350.5
167.617	3730.54
171.761	1464.38
175.904	812.517
180.044	850.851
184.183	1427.93
188.319	949.605
192.454	357.631
196.586	432.615
200.717	491.859
204.846	459.733
208.972	313.441
213.097	287.237
217.22	539.022
221.341	968.785
225.46	1375.77
229.577	1746.46
233.692	1398.15
237.805	755.487
241.916	395.313
246.025	163.06
250.132	166.191
254.237	59.916
258.34	9.512
262.442	11.895
266.541	51.489
270.639	22.918
274.734	22.5
278.828	27.663
282.919	47.302
287.009	80.777
291.097	61.182
295.183	28.162
299.266	7.095
303.348	89.493
307.428	65.902
311.507	23.26
315.583	42.511
319.657	86.19
323.729	36.83
327.8	6.402
331.868	56.478
335.935	21.163
339.999	18.404
344.062	41.723
348.123	9.465
352.182	19.182
356.239	72.901
360.294	108.319
364.347	60.418
368.398	53.664
372.448	38.095
376.495	144.368
380.54	111.711
384.584	94.446
388.626	77.146
392.666	103.096
396.704	130.692
400.74	15.809
404.774	59.386
408.806	164.49
412.836	88.924
416.865	84.56
420.891	94.167
424.916	74.911
428.939	129.824
432.959	17.437
436.978	72.471
440.996	135.463
445.011	124.418
449.024	134.081
453.036	38.991
457.045	121.589
461.053	152.532
465.059	134.726
469.063	87.398
473.065	96.552
477.065	199.77
481.063	168.375
485.06	34.001
489.054	55.21
493.047	96.831
497.038	151.651
501.027	57.685
505.014	87.593
508.999	119.441
512.982	117.538
516.964	83.683
520.944	49.593
524.921	118.433
528.897	119.353
532.871	118.486
536.844	148.923
540.814	68.088
544.783	108.45
548.749	200.321
552.714	84.634
556.677	48.476
560.638	48.387
564.597	87.337
568.555	122.08
572.511	68.331
576.464	58.594
580.416	129.038
584.366	85.943
588.315	148.325
592.261	7.581
596.206	41.58
600.148	85.477
604.089	103.516
608.028	139.734
611.965	28.515
615.901	17.924
619.834	207.82
623.766	103.256
627.696	123.984
631.624	40.632
635.551	75.242
639.475	123.097
643.398	147.232
647.318	35.375
651.237	51.201
655.155	143.23
659.07	111.159
662.984	232.186
666.895	57.492
670.805	98.127
674.713	195.575
678.62	207.425
682.524	183.541
686.427	176.819
690.328	700.118
694.227	2173.32
698.124	1514.14
702.02	855.626
705.913	445.065
709.805	77.422
713.695	122.2
717.584	113.666
721.47	101.665
725.355	117.797
729.238	69.94
733.119	74.311
736.998	160.59
740.876	122.816
744.752	78.992
748.626	77.55
752.498	95.438
756.368	139.599
760.237	169.516
764.104	96.075
767.969	49.684
771.832	58.816
775.693	111.62
779.553	137.19
783.411	121.782
787.267	29.601
791.122	47.652
794.974	3.622
798.825	112.749
802.674	193.099
806.522	40.794
810.367	21.264
814.211	85.223
818.053	256.657
821.893	77.898
825.732	136.555
829.568	121.884
833.403	12.236
837.236	141.859
841.068	183.069
844.898	183.513
848.726	116.986
852.552	81.146
856.376	33.606
860.199	79.763
864.02	170.936
867.839	72.336
871.656	81.32
875.472	69.213
879.286	52.146
883.098	99.45
886.909	167.943
890.717	87.199
894.524	100.811
898.33	5.839
902.133	161.739
905.935	114.167
909.735	131.201
913.533	210.743
917.33	70.718
921.124	61.169
924.918	131.41
928.709	211.533
932.499	250.082
936.286	58.127
940.073	49.035
943.857	21.896
947.64	120.318
951.421	104.264
955.2	196.155
958.978	142.992
962.753	97.836
966.527	28.282
970.3	0.82
974.071	194.706
977.84	166.638
981.607	135.734
985.372	179.901
989.136	30.598
992.898	59.101
996.659	100.187
1000.42	109.149
1004.17	223.207
1007.93	148.932
1011.68	32.49
1015.43	22.736
1019.18	14.517
1022.93	195.535
1026.68	235.235
1030.42	193.031
1034.17	108.814
1037.91	82.601
1041.65	507.812
1045.39	315.763
1049.12	309.862
1052.86	554.757
1056.59	782.512
1060.33	4756.62
1064.06	45158.4
1067.78	4216.24
1071.51	772.256
1075.23	463.589
1078.96	464.616
1082.68	338.922
1086.4	261.955
1090.12	189.843
1093.83	161.485
1097.55	218.945
1101.26	269.023
1104.97	392.307
1108.68	276.418
1112.39	104.338
1116.1	47.272
1119.8	84.282
1123.5	153.854
1127.2	79.686
1130.9	280.873
1134.6	279.662
1138.3	285.942
1141.99	86.973
1145.69	36.104
1149.38	51.902
1153.07	102.762
1156.76	278.542
1160.44	200.006
1164.13	266.943
1167.81	92.079
1171.49	122.118
1175.17	35.572
1178.85	133.708
1182.52	252.286
1186.2	297.236
1189.87	323.379
1193.54	238.781
1197.21	85.392
1200.88	44.477
1204.55	12.519
1208.21	69.759
1211.88	173.342
1215.54	265.715
1219.2	309.331
1222.86	279.744
1226.51	157.879
1230.17	165.143
1233.82	211.425
1237.47	192.001
1241.12	306.776
1244.77	426.775
1248.42	512.845
1252.06	348.594
1255.71	255.275
1259.35	180.604
1262.99	183.75
1266.63	160.133
1270.26	212.606
1273.9	216.372
1277.53	528.899
1281.16	421.912
1284.8	215.049
1288.42	156.768
1292.05	77.125
1295.68	3.471
1299.3	40.203
1302.92	168.96
1306.55	204.464
1310.16	135.539
1313.78	284.15
1317.4	219.324
1321.01	129.025
1324.62	109.376
1328.24	11.087
1331.85	17.706
1335.45	4.125
1339.06	227.2
1342.66	385.439
1346.27	322.287
1349.87	239.078
1353.47	125.736
1357.07	41.152
1360.66	72.962
1364.26	84.263
1367.85	88.073
1371.44	90.251
1375.04	170.979
1378.62	362.147
1382.21	492.59
1385.8	443.047
1389.38	522.57
1392.96	221.477
1396.54	39.213
1400.12	134.404
1403.7	230.177
1407.28	296.741
1410.85	263.358
1414.42	467.218
1417.99	657.725
1421.56	928.164
1425.13	1919.77
1428.7	1132.96
1432.26	441.445
1435.83	179.717
1439.39	7.506
1442.95	169.567
1446.51	268.709
1450.06	403.579
1453.62	400.848
1457.17	490.224
1460.73	574.877
1464.28	632.664
1467.83	329.688
1471.37	278.008
1474.92	165.406
1478.46	30.915
1482.01	29.959
1485.55	246.953
1489.09	342.462
1492.63	272.888
1496.16	404.272
1499.7	386.625
