Measurement: Raman, 514 nm, ccw, Raman Data Processed
Mineral: Witherite
Rruff sample: R050148
Ideal chemistry: BaCO_3_
Locality: Settlingstones mine, Fourstones, Northumberland, England
Source: Jim McGlasson
Description: Tan colored crystal fragment
Measured chemistry: (Ba_0.96_Sr_0.04_)CO_3_
Pin_id: M00358
Orientation: Laser parallel to a* (1 0 0). Fiducial mark perpendicular to laser is parallel to -b [0 -1 0]
Raman shift (cm-1)	intensity
50.765	0
54.966	53.538
59.164	103.938
63.36	12.551
67.554	15.404
71.747	10.623
75.937	251.567
80.125	946.799
84.311	2001.14
88.496	1585.81
92.678	1737.21
96.858	1943.8
101.036	1980.94
105.212	2221.26
109.387	2182.56
113.559	2175.71
117.729	2637.6
121.897	2555.1
126.063	3035.12
130.228	4343.6
134.39	8680.44
138.55	18745.9
142.709	20021.6
146.865	12027.6
151.019	12004.2
155.171	20131.6
159.322	26749.7
163.47	14408.8
167.617	6384.73
171.761	3035.45
175.904	1971
180.044	1801.29
184.183	2296.29
188.319	1851.96
192.454	1293.31
196.586	1224.38
200.717	1366.15
204.846	1209.62
208.972	957.717
213.097	900.375
217.22	959.082
221.341	1374.89
225.46	1909.91
229.577	2757.48
233.692	2480.36
237.805	1515.78
241.916	933.475
246.025	723.655
250.132	567.374
254.237	519.049
258.34	395.604
262.442	318.503
266.541	355.041
270.639	291.038
274.734	214.093
278.828	182.82
282.919	305.286
287.009	175.277
291.097	129.862
295.183	207.963
299.266	216.164
303.348	157.712
307.428	124.517
311.507	153.772
315.583	146.776
319.657	94.697
323.729	30.936
327.8	117.566
331.868	108.55
335.935	114.617
339.999	17.003
344.062	118.683
348.123	74.046
352.182	40.276
356.239	26.668
360.294	129.087
364.347	96.735
368.398	58.849
372.448	52.24
376.495	51.711
380.54	108.554
384.584	51.578
388.626	5.339
392.666	39.978
396.704	109.645
400.74	23.252
404.774	1.153
408.806	37.622
412.836	132.522
416.865	12.352
420.891	39.744
424.916	23.583
428.939	79.85
432.959	60.063
436.978	68.306
440.996	12.513
445.011	38.329
449.024	45.987
453.036	53.91
457.045	3.495
461.053	83.634
465.059	48.126
469.063	22.568
473.065	43.39
477.065	125.861
481.063	67.102
485.06	9.606
489.054	55.055
493.047	49.084
497.038	145.283
501.027	20.973
505.014	51.73
508.999	6.274
512.982	83.693
516.964	68.215
520.944	31.103
524.921	43.694
528.897	152.884
532.871	59.688
536.844	18.462
540.814	5.878
544.783	51.407
548.749	214.963
552.714	103.099
556.677	74.495
560.638	18.533
564.597	50.046
568.555	131.666
572.511	131.066
576.464	35.905
580.416	13.975
584.366	156.837
588.315	180.511
592.261	24.925
596.206	38.36
600.148	103.324
604.089	212.671
608.028	100.92
611.965	7.596
615.901	48.891
619.834	140.278
623.766	215.998
627.696	162.401
631.624	86.379
635.551	64.755
639.475	187.857
643.398	230.45
647.318	142.806
651.237	72.513
655.155	115.052
659.07	225.665
662.984	237.331
666.895	26.917
670.805	1.448
674.713	110.694
678.62	255.74
682.524	272.156
686.427	190.644
690.328	408.664
694.227	1878.75
698.124	1499.94
702.02	1100.77
705.913	588.156
709.805	142.793
713.695	36.281
717.584	180.688
721.47	209.849
725.355	186.145
729.238	12.471
733.119	58.474
736.998	210.05
740.876	214.616
744.752	137.955
748.626	72.106
752.498	57.425
756.368	173.628
760.237	243.311
764.104	127.122
767.969	70.194
771.832	15.703
775.693	118.421
779.553	216.374
783.411	230.183
787.267	7.602
791.122	51.069
794.974	14.492
798.825	215.947
802.674	266.516
806.522	87.092
810.367	18.679
814.211	65.59
818.053	211.475
821.893	196.116
825.732	209.173
829.568	95.151
833.403	109.755
837.236	22.56
841.068	231.092
844.898	249.394
848.726	122.533
852.552	99.514
856.376	5.42
860.199	206.349
864.02	291.404
867.839	274.772
871.656	107.521
875.472	3.298
879.286	41.736
883.098	165.901
886.909	199.135
890.717	234.268
894.524	108.602
898.33	8.205
902.133	104.976
905.935	161.146
909.735	288.744
913.533	230.79
917.33	1.304
921.124	17.688
924.918	75.269
928.709	167.354
932.499	332.152
936.286	226.216
940.073	92.698
943.857	32.242
947.64	101.812
951.421	176.772
955.2	239.721
958.978	228.635
962.753	224.112
966.527	36.791
970.3	11.534
974.071	128.015
977.84	313.352
981.607	219.073
985.372	144.805
989.136	44.965
992.898	7.205
996.659	26.198
1000.42	139.093
1004.17	323.907
1007.93	157.413
1011.68	55.351
1015.43	0.642
1019.18	22.628
1022.93	233.7
1026.68	311.108
1030.42	332.112
1034.17	283.409
1037.91	148.518
1041.65	377.189
1045.39	281.296
1049.12	445.472
1052.86	750.213
1056.59	886.058
1060.33	3719.58
1064.06	45770.1
1067.78	4439.77
1071.51	732.159
1075.23	643.281
1078.96	542.893
1082.68	447.19
1086.4	342.192
1090.12	71.178
1093.83	194.816
1097.55	158.006
1101.26	374.768
1104.97	535.504
1108.68	498.008
1112.39	220.989
1116.1	16.742
1119.8	27.625
1123.5	85.458
1127.2	181.332
1130.9	360.124
1134.6	443.496
1138.3	311.493
1141.99	170.555
1145.69	87.953
1149.38	88.038
1153.07	169.418
1156.76	300.652
1160.44	429.215
1164.13	358.483
1167.81	307.33
1171.49	172.054
1175.17	81.869
1178.85	169.788
1182.52	225.389
1186.2	452.106
1189.87	390.837
1193.54	372.587
1197.21	206.406
1200.88	28.796
1204.55	30.463
1208.21	87.97
1211.88	207.45
1215.54	414.869
1219.2	491.533
1222.86	424.219
1226.51	150.242
1230.17	161.574
1233.82	173.75
1237.47	190.03
1241.12	284.544
1244.77	399.12
1248.42	545.159
1252.06	529.753
1255.71	294.275
1259.35	289.373
1262.99	243.359
1266.63	126.138
1270.26	230.666
1273.9	353.866
1277.53	625.85
1281.16	627.843
1284.8	519.186
1288.42	330.338
1292.05	165.805
1295.68	1.562
1299.3	16.386
1302.92	143.606
1306.55	233.329
1310.16	222.51
1313.78	448.998
1317.4	406.728
1321.01	273.911
1324.62	311.856
1328.24	171.328
1331.85	17.723
1335.45	25.619
1339.06	230.997
1342.66	425.634
1346.27	488.572
1349.87	513.02
1353.47	347.189
1357.07	101.542
1360.66	163.07
1364.26	78.538
1367.85	191.665
1371.44	111.187
1375.04	200.909
1378.62	400.047
1382.21	619.415
1385.8	577.866
1389.38	545.647
1392.96	352.675
1396.54	169.342
1400.12	63.558
1403.7	73.415
1407.28	315.765
1410.85	176.432
1414.42	478.066
1417.99	760.08
1421.56	1075.44
1425.13	1946.46
1428.7	1134.47
1432.26	480.683
1435.83	184.669
1439.39	13.335
1442.95	145.638
1446.51	290.127
1450.06	342.355
1453.62	451.246
1457.17	641.691
1460.73	649.741
1464.28	689.943
1467.83	481.695
1471.37	400.348
1474.92	132.229
1478.46	0.752
1482.01	4.482
1485.55	44.209
1489.09	140.284
1492.63	326.619
1496.16	525.841
1499.7	573.863
1503.23	536.965
