Measurement: Raman, 514 nm, ccw, Raman Data Processed
Mineral: Witherite
Rruff sample: R040040
Ideal chemistry: BaCO_3_
Locality: Cave-in-Rock, Hardin County, Illinois, USA
Source: University of Arizona Mineral Museum
Description: Tan colored prismatic group of columnar crystals
Measured chemistry: (Ba_0.98_Sr_0.02_)_Î£=1_CO_3_; CO_2_ estimated by difference
Pin_id: L00180
Orientation: Laser parallel to -c* (0 0 -1). Fiducial mark perpendicular to laser is parallel to -a [-1 0 0]
Raman shift (cm-1)	intensity
124.675	0
128.84	144.372
133.003	494.658
137.164	642.952
141.323	210.795
145.48	521.801
149.635	779.76
153.788	1832.91
157.939	5276.81
162.088	4269.51
166.235	1182.35
170.38	256.635
174.523	113.207
178.664	131.16
182.803	130.097
186.94	20.115
191.076	59.542
195.209	41.918
199.34	187.537
203.47	103.006
207.597	216.484
211.722	460.106
215.846	1137.61
219.967	1220.31
224.087	1284.24
228.204	908.465
232.32	473.416
236.434	328.24
240.545	243.378
244.655	168.767
248.763	14.439
252.869	190.491
256.973	166.961
261.075	55.237
265.175	35.48
269.273	225.933
273.369	156.407
277.463	73.801
281.556	121.311
285.646	151.864
289.734	178.5
293.821	70.626
297.905	146.784
301.988	234.298
306.069	10.228
310.147	34.163
314.224	75.532
318.299	152.382
322.372	139.519
326.443	76.835
330.512	124.389
334.579	283.137
338.645	151.082
342.708	189.188
346.769	57.441
350.829	275.591
354.887	245.63
358.942	73.482
362.996	122.156
367.048	290.688
371.098	82.1
375.146	83.849
379.192	156.354
383.236	135.487
387.279	214.338
391.319	26.765
395.358	152.292
399.394	137.785
403.429	77.115
407.462	51.985
411.493	85.241
415.522	114.623
419.549	145.922
423.575	115.747
427.598	35.278
431.619	324.879
435.639	232.894
439.657	211.791
443.673	38.672
447.687	291.042
451.699	190.226
455.709	30.55
459.717	1.365
463.724	206.031
467.728	304.901
471.731	263.002
475.732	57.991
479.731	106.992
483.728	136.252
487.723	255.219
491.716	104.159
495.708	42.782
499.697	251.648
503.685	331.37
507.671	220.311
511.655	20.96
515.637	248.546
519.617	387.211
523.596	165.966
527.572	15.555
531.547	142.779
535.52	371.012
539.491	319.053
543.46	116.98
547.427	105.271
551.393	181.125
555.356	334.234
559.318	116.191
563.278	23.398
567.236	48.045
571.192	285.406
575.147	410.41
579.099	65.246
583.05	94.23
586.999	241.48
590.946	297.893
594.891	314.354
598.834	80.355
602.776	66.148
606.715	340.664
610.653	546.271
614.589	308.451
618.523	243.139
622.456	177.473
626.386	522.973
630.315	488.035
634.242	379.771
638.167	105.408
642.09	290.295
646.012	547.311
649.931	412.646
653.849	378.246
657.765	55.082
661.679	309.662
665.592	463.549
669.502	275.121
673.411	298.846
677.318	132.326
681.223	230.875
685.126	551.604
689.028	4124.86
692.927	1075.55
696.825	305.156
700.721	107.994
704.616	280.885
708.508	363.441
712.399	34.375
716.288	148.662
720.175	201.307
724.06	252.031
727.944	406.012
731.825	102.877
735.705	11.803
739.584	58.713
743.46	249.174
747.334	499.314
751.207	349.424
755.078	21.459
758.947	117.998
762.815	417.838
766.68	519.896
770.544	479.547
774.406	9.383
778.267	78.898
782.125	408.248
785.982	307.914
789.837	397.098
793.69	97.113
797.542	23.842
801.391	25.15
805.239	353.832
809.085	495.158
812.93	472.879
816.772	381.045
820.613	9.201
824.452	367.828
828.29	537.154
832.125	477.418
835.959	186.514
839.791	205.02
843.621	338.186
847.45	648.014
851.277	755.752
855.102	403.148
858.925	360.922
862.746	228.943
866.566	266.664
870.384	592.76
874.2	418.857
878.015	365.803
881.828	133.195
885.639	48.334
889.448	336.602
893.256	533.859
897.061	590.721
900.865	487.893
904.668	165.006
908.468	329.609
912.267	386.932
916.064	544.355
919.86	441.701
923.653	338.754
927.445	94.797
931.236	131.752
935.024	248.85
938.811	485.951
942.596	463.062
946.379	509.33
950.161	63.883
953.94	181.129
957.719	188.186
961.495	633.594
965.27	465.6
969.043	292.576
972.814	104.49
976.583	38.133
980.351	19.012
984.117	506.598
987.882	469.547
991.644	356.146
995.405	47.455
999.165	118.197
1002.92	184.955
1006.68	231.543
1010.43	468.348
1014.18	561.297
1017.93	708.785
1021.68	206.354
1025.43	195.668
1029.18	97.961
1032.92	658.186
1036.66	692.268
1040.4	939.484
1044.14	448.631
1047.88	267.225
1051.62	633.697
1055.35	1611.75
1059.08	34590.7
1062.81	4729.7
1066.54	1046.61
1070.27	851.445
1073.99	398.936
1077.72	335.523
1081.44	441.971
1085.16	848.152
1088.88	864.678
1092.59	990.541
1096.31	445.188
1100.02	60.678
1103.73	116.705
1107.44	263.857
1111.15	496.822
1114.86	541.738
1118.57	668.287
1122.27	604.979
1125.97	127.139
1129.67	130.291
1133.37	72.225
1137.07	496.07
1140.76	691.156
1144.45	633.506
1148.15	247.326
1151.84	351.404
1155.53	115.17
1159.21	91.629
1162.9	370.336
1166.58	431.068
1170.26	872.643
1173.94	745.26
1177.62	470.014
1181.3	320.742
1184.97	182.523
1188.65	30.99
1192.32	301.605
1195.99	591.695
1199.66	908.541
1203.33	845.957
1206.99	714.783
1210.65	443.734
1214.32	286.5
1217.98	184.145
1221.64	450.656
1225.29	522.795
1228.95	1067.97
1232.6	1373.61
1236.26	937.668
1239.91	556.76
1243.56	419.049
1247.2	362.088
1250.85	273.373
1254.49	554.805
1258.13	984.576
1261.78	1238.22
1265.41	1099.4
1269.05	863.477
1272.69	581.016
1276.32	429.441
1279.95	236.582
1283.59	151.604
1287.21	358.762
1290.84	915.041
1294.47	1019.45
1298.09	792.939
1301.72	634.514
1305.34	346.688
1308.96	724.258
1312.58	78.635
1316.19	380.209
1319.81	566.967
1323.42	950.074
1327.03	1204.3
1330.64	841.184
1334.25	646.152
1337.86	320.648
1341.46	75.787
1345.07	261.008
1348.67	108.629
1352.27	312.309
1355.87	372.652
1359.46	933.973
1363.06	895.238
1366.65	1097.04
1370.25	358.398
1373.84	125.555
1377.43	217.801
1381.02	45.273
1384.6	346.203
1388.18	525.777
1391.77	604.73
1395.35	892.578
1398.93	1249.1
1402.51	1036.3
1406.08	1209.94
1409.66	505.859
1413.23	385.195
1416.8	227.422
1420.37	256.879
1423.94	78.312
1427.51	494.477
1431.08	1041.96
1434.64	1302.92
1438.2	1290.61
1441.76	1712.17
1445.32	1601.22
1448.88	1207.28
1452.43	543.727
1455.99	655.156
1459.54	589.672
1463.09	826.727
1466.64	794.512
1470.19	1135.18
1473.74	1282.69
1477.28	1409.53
1480.83	1650.09
1484.37	1473.68
1487.91	1070.66
1491.45	888.742
1494.98	207.504
1498.52	119.051
1502.05	48.18
1505.59	382.152
1509.12	515.633
1512.65	966.855
1516.17	1292.36
1519.7	1441.49
