Measurement: Raman, 514 nm, ccw, Raman Data Processed
Mineral: Witherite
Rruff sample: R050148
Ideal chemistry: BaCO_3_
Locality: Settlingstones mine, Fourstones, Northumberland, England
Source: Jim McGlasson
Description: Tan colored crystal fragment
Measured chemistry: (Ba_0.96_Sr_0.04_)CO_3_
Pin_id: L00254
Orientation: Laser parallel to c* (0 0 1). Fiducial mark perpendicular to laser is parallel to a [1 0 0]
Raman shift (cm-1)	intensity
99.917	0
104.109	5.708
108.298	85.66
112.486	204.601
116.672	348.928
120.855	449.121
125.036	586.525
129.216	795.793
133.393	1035.88
137.568	1077.26
141.741	1017.71
145.911	1208.1
150.08	1690.85
154.247	3875.61
158.411	7142.13
162.574	5625.23
166.734	2055.76
170.893	900.613
175.049	623.69
179.203	543.88
183.355	424.256
187.505	383.932
191.653	322.889
195.799	327.248
199.943	304.097
204.084	362.697
208.224	430.853
212.362	617.515
216.497	958.757
220.631	1503.5
224.762	1792.83
228.891	1346.69
233.018	798.103
237.144	533.909
241.267	324.078
245.388	270.125
249.507	283.044
253.624	196.606
257.739	206.583
261.852	210.963
265.962	217.927
270.071	132.355
274.178	111.459
278.283	99.585
282.385	100.804
286.486	138.468
290.584	108.989
294.681	98.791
298.775	66.316
302.868	54.643
306.958	66.981
311.047	78.743
315.133	53.927
319.217	99.521
323.299	49.984
327.38	49.335
331.458	49.81
335.534	13.554
339.608	33.061
343.681	29.517
347.751	31.036
351.819	88.704
355.885	61.733
359.949	45.25
364.011	8.793
368.071	81.856
372.129	4.115
376.185	15.644
380.239	15.682
384.291	16.745
388.341	27.944
392.389	78.276
396.435	58.175
400.479	22.188
404.521	24.981
408.561	17.557
412.599	40.674
416.636	36.859
420.67	11.355
424.702	9.239
428.732	17.473
432.76	20.346
436.786	54.06
440.81	42.118
444.832	14.089
448.852	21.976
452.87	59.804
456.887	14.953
460.901	38.835
464.913	22.34
468.923	32.991
472.931	54.133
476.938	26.517
480.942	76.964
484.944	44.478
488.945	27.038
492.943	34.973
496.94	46.51
500.934	31.925
504.927	1.159
508.917	8.304
512.906	12.285
516.892	51.795
520.877	27.314
524.86	68.746
528.841	102.25
532.82	41.707
536.796	99.199
540.771	68.689
544.744	35.751
548.715	37.283
552.684	80.802
556.652	64.398
560.617	70.94
564.58	47.543
568.541	1.079
572.501	46.298
576.458	134.917
580.414	52.197
584.367	45.119
588.319	69.081
592.268	62.424
596.216	14.458
600.162	20.154
604.106	72.968
608.048	58.406
611.988	62.318
615.926	100.108
619.862	75.532
623.797	51.636
627.729	128.051
631.659	18.216
635.588	57.006
639.515	53.178
643.439	91.702
647.362	117.561
651.283	75.51
655.202	96.398
659.119	23.624
663.034	84.852
666.947	118.794
670.859	76.913
674.768	130.448
678.676	86.453
682.581	201.142
686.485	983.252
690.387	4755.09
694.287	1523.52
698.185	279.662
702.081	194.034
705.975	112.103
709.868	180.123
713.758	150.578
717.647	43.591
721.533	124.323
725.418	40.003
729.301	125.507
733.182	80.599
737.061	72.798
740.939	52.31
744.814	92.599
748.688	92.945
752.559	90.401
756.429	22.49
760.297	137.809
764.163	145.686
768.027	154.709
771.89	141.409
775.75	18.793
779.609	56.141
783.465	71.618
787.32	29.268
791.173	149.727
795.024	113.063
798.873	77.817
802.721	101.307
806.566	86.889
810.41	49.615
814.252	74.999
818.092	43.211
821.93	0.329
825.766	70.324
829.601	84.372
833.433	113.382
837.264	52.38
841.093	125.462
844.92	15.465
848.745	21.462
852.568	93.393
856.39	28.143
860.209	116.797
864.027	71.341
867.843	101.879
871.657	177.989
875.47	134.533
879.28	106.74
883.089	27.292
886.896	54.409
890.701	94.631
894.504	123.54
898.305	139.996
902.105	121.437
905.902	3.091
909.698	46.067
913.492	109.173
917.285	78.119
921.075	40.306
924.864	74.654
928.65	32.753
932.435	45.136
936.218	52.516
940	43.395
943.779	138.907
947.557	170.231
951.333	37.572
955.107	172.131
958.879	96.483
962.65	121.819
966.418	149.155
970.185	93.546
973.95	76.245
977.714	61.774
981.475	35.063
985.235	61.689
988.993	53.971
992.749	74.37
996.503	50.509
1000.26	55.884
1004.01	52.283
1007.75	58.562
1011.5	85.637
1015.25	24.312
1018.99	187.717
1022.73	123.868
1026.47	114.254
1030.21	69.729
1033.95	147.245
1037.68	357.027
1041.41	335.238
1045.15	325.218
1048.88	374.943
1052.6	629.258
1056.33	3570.71
1060.05	51490.5
1063.78	5730.34
1067.5	782.069
1071.21	341.827
1074.93	163.561
1078.65	190.567
1082.36	137.781
1086.07	203.713
1089.78	180.665
1093.49	227.517
1097.2	140.218
1100.9	0.417
1104.6	162.204
1108.3	100.037
1112	105.758
1115.7	128.708
1119.4	44.218
1123.09	163.987
1126.78	55.811
1130.47	1.464
1134.16	44.899
1137.85	154.816
1141.54	126.953
1145.22	186.43
1148.9	76.597
1152.58	6.61
1156.26	65.913
1159.94	46.437
1163.61	4.607
1167.28	52.875
1170.95	109.629
1174.62	111.306
1178.29	129.41
1181.96	46.992
1185.62	121.644
1189.29	27.229
1192.95	76.284
1196.61	112.881
1200.26	163.819
1203.92	194.861
1207.57	164.346
1211.23	173.706
1214.88	130.986
1218.53	127.247
1222.17	192.295
1225.82	183.972
1229.46	245.575
1233.11	229.285
1236.74	186.14
1240.38	138.537
1244.02	109.041
1247.66	170.028
1251.29	79.109
1254.92	235.096
1258.55	264.973
1262.18	266.76
1265.81	243.253
1269.43	99.667
1273.06	100.92
1276.68	55.707
1280.3	31.192
1283.91	152.597
1287.53	97.787
1291.15	105.494
1294.76	58.628
1298.37	122.621
1301.98	54.005
1305.59	13.68
1309.19	30.603
1312.8	23.418
1316.4	25.649
1320	81.862
1323.6	111.902
1327.2	161.538
1330.8	161.103
1334.39	97.607
1337.98	84.39
1341.58	12.494
1345.16	5.271
1348.75	84.392
1352.34	206.892
1355.92	72.168
1359.51	221.51
1363.09	202.838
1366.67	107.218
1370.24	172.717
1373.82	14.837
1377.39	50.167
1380.97	104.211
1384.54	174.283
1388.11	203.049
1391.68	308.815
1395.24	326.718
1398.81	381.005
1402.37	302.646
1405.93	370.013
1409.49	190.186
1413.05	41.37
1416.6	91.065
1420.16	54.725
1423.71	165.032
1427.26	97.342
1430.81	246.204
1434.36	219.033
1437.91	192.757
1441.45	199.334
1444.99	172.039
1448.54	185.297
1452.08	111.77
1455.61	107.45
1459.15	43.004
1462.68	87.824
1466.22	191.784
1469.75	286.034
1473.28	310.059
1476.81	250.373
1480.33	325.369
1483.86	411.935
1487.38	269.486
1490.9	117.519
1494.42	166.561
1497.94	27.312
1501.46	91.231
1504.97	88.388
1508.49	140.813
1512	151.919
1515.51	309.838
