Measurement: Raman, 514 nm, ccw, Raman Data Processed
Mineral: Witherite
Rruff sample: R040040
Ideal chemistry: BaCO_3_
Locality: Cave-in-Rock, Hardin County, Illinois, USA
Source: University of Arizona Mineral Museum
Description: Tan colored prismatic group of columnar crystals
Measured chemistry: (Ba_0.98_Sr_0.02_)_Î£=1_CO_3_; CO_2_ estimated by difference
Pin_id: L00131
Orientation: Laser parallel to -b* (0 -1 0). Fiducial mark perpendicular to laser is parallel to c [0 0 1]
Raman shift (cm-1)	intensity
107.995	0
112.168	69.355
116.339	310.46
120.508	755.896
124.675	740.621
128.84	1200.09
133.003	3466.27
137.164	7022.68
141.323	3450.59
145.48	4235.93
149.635	3456.15
153.788	2293.4
157.939	1018.71
162.088	682.837
166.235	556.478
170.38	190.013
174.523	136.521
178.664	367.023
182.803	470.773
186.94	181.205
191.076	317.006
195.209	673.658
199.34	519.508
203.47	166.361
207.597	444.259
211.722	354.069
215.846	483.033
219.967	293.792
224.087	508.664
228.204	541.638
232.32	314.602
236.434	468.137
240.545	652.228
244.655	526.867
248.763	242.044
252.869	427.814
256.973	514.342
261.075	128.625
265.175	381.039
269.273	13.317
273.369	130.717
277.463	299.165
281.556	322.48
285.646	548.004
289.734	685.057
293.821	283.242
297.905	392.334
301.988	662.123
306.069	512.412
310.147	233.053
314.224	384.08
318.299	705.332
322.372	626.824
326.443	168.627
330.512	170.695
334.579	532.988
338.645	353.463
342.708	6.211
346.769	430.867
350.829	703.592
354.887	504.746
358.942	216.121
362.996	347.855
367.048	679.936
371.098	682.361
375.146	235.105
379.192	418.154
383.236	691.496
387.279	495.072
391.319	209.779
395.358	362.131
399.394	848.453
403.429	623.098
407.462	117.947
411.493	214.779
415.522	570.213
419.549	480.111
423.575	349.936
427.598	360.494
431.619	635.924
435.639	492.264
439.657	108.359
443.673	226.902
447.687	536.041
451.699	523.785
455.709	81.148
459.717	179.336
463.724	482.809
467.728	551.422
471.731	430.229
475.732	142.848
479.731	362.033
483.728	565.809
487.723	472.988
491.716	272.789
495.708	60.434
499.697	510.57
503.685	631.008
507.671	206.031
511.655	146.65
515.637	451.896
519.617	813.068
523.596	495.52
527.572	8.41
531.547	220.164
535.52	512.104
539.491	724.168
543.46	356.352
547.427	11.35
551.393	391.025
555.356	653.436
559.318	305.764
563.278	208.168
567.236	220.07
571.192	562.77
575.147	595.516
579.099	248.252
583.05	41.338
586.999	327.279
590.946	781.174
594.891	625.326
598.834	10.439
602.776	115.748
606.715	720.18
610.653	544.422
614.589	509.137
618.523	73.816
622.456	220.1
626.386	586.764
630.315	750.893
634.242	194.859
638.167	51.82
642.09	105.172
646.012	730.287
649.931	864.967
653.849	258.416
657.765	26.457
661.679	230.443
665.592	736.859
669.502	720.236
673.411	393.182
677.318	26.168
681.223	373.623
685.126	636.477
689.028	832.354
692.927	595.58
696.825	288.371
700.721	460.982
704.616	862.961
708.508	825.406
712.399	599.922
716.288	150.688
720.175	492.822
724.06	895.656
727.944	926.066
731.825	497.703
735.705	75.418
739.584	400.555
743.46	921.844
747.334	1050.55
751.207	531.541
755.078	21.453
758.947	132.396
762.815	661.297
766.68	941.697
770.544	762.746
774.406	497.75
778.267	2.338
782.125	358.381
785.982	809.031
789.837	424.844
793.69	10.176
797.542	1.164
801.391	169.902
805.239	688.648
809.085	767.688
812.93	705.48
816.772	46.105
820.613	97.949
824.452	355.889
828.29	1130.67
832.125	808.092
835.959	337.998
839.791	186.182
843.621	358.006
847.45	664.523
851.277	941.416
855.102	858.768
858.925	525.92
862.746	72.143
866.566	228.805
870.384	705.1
874.2	971.25
878.015	418.576
881.828	174.285
885.639	290.354
889.448	605.656
893.256	871.109
897.061	943.689
900.865	618.947
904.668	94.137
908.468	117.275
912.267	392.287
916.064	877.047
919.86	1081.95
923.653	766.219
927.445	288.047
931.236	9.225
935.024	506.016
938.811	1111.05
942.596	1145.42
946.379	758.441
950.161	272.025
953.94	250.484
957.719	498.293
961.495	1043.19
965.27	1034.28
969.043	952.752
972.814	437.811
976.583	26.914
980.351	66.781
984.117	431.531
987.882	1082.83
991.644	1254.64
995.405	409.682
999.165	94.113
1002.92	17.033
1006.68	661.469
1010.43	1025.71
1014.18	1209.38
1017.93	758.998
1021.68	268.334
1025.43	73.223
1029.18	478.164
1032.92	932.957
1036.66	1276.86
1040.4	1501.77
1044.14	842.75
1047.88	730.389
1051.62	685.678
1055.35	1208.84
1059.08	19971.9
1062.81	7906.86
1066.54	1599.18
1070.27	882.064
1073.99	325.193
1077.72	167.52
1081.44	527.828
1085.16	1018.83
1088.88	1248.75
1092.59	1040.24
1096.31	610.668
1100.02	58.068
1103.73	226.375
1107.44	195.396
1111.15	934.816
1114.86	1274.62
1118.57	1513.16
1122.27	942.023
1125.97	468.938
1129.67	126.211
1133.37	164.494
1137.07	453.428
1140.76	953.021
1144.45	1390.81
1148.15	1177.58
1151.84	424.525
1155.53	131.781
1159.21	270.207
1162.9	264.439
1166.58	923.969
1170.26	1293.09
1173.94	1450.71
1177.62	1202.25
1181.3	603.934
1184.97	150.896
1188.65	232.324
1192.32	722.824
1195.99	972.627
1199.66	1722.79
1203.33	1875.55
1206.99	1445.26
1210.65	613.654
1214.32	430.857
1217.98	276.254
1221.64	869.771
1225.29	1083.66
1228.95	1999.44
1232.6	1611.52
1236.26	1624.29
1239.91	1167.18
1243.56	517.607
1247.2	323.898
1250.85	431.211
1254.49	960.912
1258.13	1459.17
1261.78	1916
1265.41	1523.89
1269.05	1349.04
1272.69	822.143
1276.32	175.512
1279.95	103.619
1283.59	267.35
1287.21	668.391
1290.84	1554.57
1294.47	1613.38
1298.09	1432.38
1301.72	817.834
1305.34	244.023
1308.96	162.061
1312.58	463.379
1316.19	22.863
1319.81	443.27
1323.42	1121.72
1327.03	1369.85
1330.64	1776.64
1334.25	1063.9
1337.86	831.09
1341.46	122.699
1345.07	3.361
1348.67	150.828
1352.27	534.213
1355.87	834.918
1359.46	1437.63
1363.06	2119.36
1366.65	1583.31
1370.25	676.801
1373.84	453.082
1377.43	169.426
1381.02	184.586
1384.6	376.832
1388.18	497.859
1391.77	1330.12
1395.35	1740.66
1398.93	2139.1
1402.51	2279.02
1406.08	1839.48
1409.66	1440.43
1413.23	1052.55
1416.8	242.281
1420.37	1210.37
1423.94	1344.17
1427.51	942.934
1431.08	1465.23
1434.64	1957.82
1438.2	2146.36
1441.76	2371.22
1445.32	1857.69
1448.88	1023.77
1452.43	745.746
1455.99	460.988
1459.54	279.516
1463.09	431.973
1466.64	971.148
1470.19	1382.07
1473.74	2181.24
1477.28	2331.78
1480.83	1886.45
1484.37	1985.36
1487.91	1459.84
1491.45	876.07
1494.98	332.625
1498.52	102.93
1502.05	99.309
1505.59	0.559
1509.12	149.332
1512.65	864.48
1516.17	0
