Measurement: Raman, 514 nm, ccw, Raman Data Processed
Mineral: Witherite
Rruff sample: R040040
Ideal chemistry: BaCO_3_
Locality: Cave-in-Rock, Hardin County, Illinois, USA
Source: University of Arizona Mineral Museum
Description: Tan colored prismatic group of columnar crystals
Measured chemistry: (Ba_0.98_Sr_0.02_)_Î£=1_CO_3_; CO_2_ estimated by difference
Pin_id: L00241
Orientation: Laser parallel to -a* (-1 0 0). Fiducial mark perpendicular to laser is parallel to -c [0 0 -1]
Raman shift (cm-1)	intensity
102.428	0
106.604	11.697
110.777	204.205
114.949	335.521
119.119	393.969
123.286	746.24
127.452	1309.06
131.615	3025.33
135.777	7303.22
139.937	6434.77
144.094	6242.31
148.25	6241.84
152.403	4159.81
156.555	3136.37
160.705	1529.08
164.853	551.366
168.998	228.268
173.142	104.931
177.284	201.447
181.424	389.458
185.562	385.855
189.698	257.393
193.831	252.221
197.963	290.75
202.093	287.003
206.221	182.954
210.347	265.553
214.472	174.896
218.594	335.293
222.714	289.404
226.832	433.016
230.948	487.975
235.063	197.42
239.175	127.926
243.286	285.695
247.394	257.694
251.501	148.929
255.605	133.446
259.708	152.183
263.808	143.754
267.907	326.621
272.004	128.075
276.099	109.294
280.192	216.299
284.283	95.419
288.372	225.346
292.459	306.835
296.544	188.8
300.627	96.081
304.709	120.616
308.788	244.355
312.865	94.131
316.941	54.007
321.015	236.905
325.086	210.84
329.156	8.935
333.224	19.932
337.29	196.975
341.354	280.064
345.416	60.553
349.476	206.01
353.534	195.36
357.591	331.912
361.645	232.415
365.698	136.07
369.748	253.522
373.797	321.166
377.844	181.152
381.889	141.217
385.932	216.347
389.973	411.591
394.012	219.885
398.049	126.998
402.084	333.75
406.118	382.248
410.15	168.821
414.179	220.821
418.207	265.634
422.233	373.13
426.257	197.075
430.279	123.931
434.299	174.045
438.318	327.889
442.334	169.403
446.349	18.722
450.361	220.698
454.372	323.216
458.381	360.645
462.388	118.399
466.394	95.864
470.397	354.514
474.398	239.682
478.398	157.206
482.396	164.916
486.391	192.447
490.385	268.899
494.377	136.631
498.368	64.231
502.356	181.873
506.342	229.492
510.327	170.229
514.31	17.817
518.291	45.517
522.27	294.633
526.247	292.438
530.222	0.25
534.196	38.065
538.167	175.881
542.137	273.699
546.105	211.521
550.071	49.365
554.035	57.192
557.998	245
561.958	172.746
565.917	60.477
569.874	10.345
573.829	217.509
577.782	285.172
581.733	287.534
585.683	14.787
589.63	86.638
593.576	131.514
597.52	339.798
601.462	269.53
605.402	7.74
609.341	36.107
613.277	204.182
617.212	202.238
621.145	50.135
625.076	1.775
629.006	116.494
632.933	245.827
636.859	287.596
640.783	85.058
644.705	113.025
648.625	250.238
652.543	287.525
656.46	269.176
660.375	126.588
664.288	28.399
668.199	198.661
672.108	395.686
676.016	364.162
679.921	133.808
683.825	170.502
687.727	269.154
691.628	495.756
695.526	822.268
699.423	319.357
703.318	176.53
707.211	282.801
711.102	350.522
714.992	224.035
718.879	250.104
722.765	11.578
726.649	286.279
730.532	262.878
734.412	511.447
738.291	149.701
742.168	63.232
746.043	302.73
749.916	397.948
753.788	483.139
757.658	177.934
761.526	52.217
765.392	117.16
769.257	357.173
773.119	351.79
776.98	196.138
780.839	19.96
784.697	44.29
788.552	232.796
792.406	417.172
796.258	430.96
800.108	144.855
803.957	128.603
807.804	8.627
811.649	324.888
815.492	368.271
819.333	189.205
823.173	22.509
827.011	173.705
830.847	169.155
834.681	401.637
838.514	268.742
842.345	102.429
846.174	144.854
850.001	8.177
853.827	241.12
857.651	393.91
861.473	386.388
865.293	78.698
869.112	90.733
872.928	192.729
876.744	333.462
880.557	475.29
884.369	266.945
888.178	41.183
891.987	4.306
895.793	167.193
899.598	378.875
903.401	300.575
907.202	252.23
911.001	132.372
914.799	53.743
918.595	165.271
922.389	476.79
926.182	498.162
929.972	449.594
933.761	180.225
937.549	38.358
941.334	311.502
945.118	598.822
948.9	540.01
952.681	441.872
956.459	193.428
960.236	163.033
964.012	211.177
967.785	462.904
971.557	688.229
975.327	600.304
979.095	309.54
982.862	29.204
986.627	90.522
990.39	110.625
994.152	428.439
997.912	561.718
1001.67	385.613
1005.43	2.89
1009.18	37.837
1012.93	258.95
1016.68	548.71
1020.43	451.164
1024.18	504.809
1027.93	196.586
1031.67	178.447
1035.42	109.644
1039.16	659.212
1042.9	761.129
1046.63	732.686
1050.37	868.084
1054.11	1040.5
1057.84	4892.41
1061.57	42254.2
1065.3	2364.98
1069.03	965.893
1072.75	966.422
1076.47	556.58
1080.2	376.619
1083.92	96.294
1087.64	254.241
1091.36	244.507
1095.07	463.967
1098.79	744.218
1102.5	704.076
1106.21	254.07
1109.92	183.945
1113.62	3.337
1117.33	133.434
1121.04	532.132
1124.74	601.071
1128.44	478.766
1132.14	268.562
1135.83	105.63
1139.53	63.844
1143.22	41.198
1146.92	577.757
1150.61	707.855
1154.3	645.494
1157.98	396.174
1161.67	192.764
1165.35	23.482
1169.04	32.213
1172.72	261.809
1176.4	398.756
1180.07	796.58
1183.75	883.596
1187.42	640.395
1191.1	175.504
1194.77	30.195
1198.44	133.654
1202.1	298.141
1205.77	802.076
1209.43	715.352
1213.1	818.314
1216.76	701.004
1220.42	433.297
1224.07	374.764
1227.73	349.459
1231.38	712.633
1235.04	729.6
1238.69	951.328
1242.34	1039.64
1245.99	798.055
1249.63	735.451
1253.28	263.492
1256.92	351.928
1260.56	243.115
1264.2	539.57
1267.84	751.381
1271.48	885.041
1275.11	949.736
1278.74	523.162
1282.38	385.176
1286.01	297.338
1289.63	230.713
1293.26	209.877
1296.89	488.367
1300.51	469.457
1304.13	739.375
1307.75	587.867
1311.37	335.098
1314.99	111.775
1318.6	157.596
1322.22	28.658
1325.83	116.266
1329.44	178.277
1333.05	582.246
1336.66	684.48
1340.26	733.557
1343.87	799.686
1347.47	651.795
1351.07	173.713
1354.67	104.686
1358.27	96.266
1361.86	148.631
1365.46	578.809
1369.05	799.066
1372.64	808.414
1376.23	427.756
1379.82	823.441
1383.41	622.266
1386.99	559.951
1390.57	237.178
1394.16	212.754
1397.74	159.562
1401.32	648.857
1404.89	763.309
1408.47	829.498
1412.04	1282.3
1415.61	1157.57
1419.18	1234.6
1422.75	2297.17
1426.32	873.188
1429.89	167.795
1433.45	90.953
1437.01	72.725
1440.58	303.738
1444.13	614.59
1447.69	902.785
1451.25	1064.66
1454.81	995.717
1458.36	661.988
1461.91	594.506
1465.46	329.205
1469.01	166.135
1472.56	65.064
1476.1	253.041
1479.64	506.145
1483.19	775.861
1486.73	913.385
1490.27	1120.07
1493.81	1349.18
1497.34	1139.24
1500.88	1041.96
1504.41	644.139
1507.94	661.676
1511.47	159.797
1515	3.383
1518.53	0
