Measurement: Raman, 514 nm, ccw, Raman Data Processed
Mineral: Witherite
Rruff sample: R050148
Ideal chemistry: BaCO_3_
Locality: Settlingstones mine, Fourstones, Northumberland, England
Source: Jim McGlasson
Description: Tan colored crystal fragment
Measured chemistry: (Ba_0.96_Sr_0.04_)CO_3_
Pin_id: L00254
Orientation: Laser parallel to c* (0 0 1). Fiducial mark perpendicular to laser is parallel to a [1 0 0]
Raman shift (cm-1)	intensity
91.527	0
95.723	3.451
99.917	228.018
104.109	238.094
108.298	323.859
112.486	504.594
116.672	730.755
120.855	858.038
125.036	974.863
129.216	1322.27
133.393	1652.98
137.568	1596.89
141.741	1723.94
145.911	2105.48
150.08	2794.08
154.247	5367.4
158.411	8891.2
162.574	5982.27
166.734	2409.52
170.893	1231.9
175.049	904.288
179.203	842.089
183.355	774.283
187.505	698.233
191.653	651.087
195.799	618.951
199.943	640.754
204.084	700.478
208.224	892.173
212.362	1503.83
216.497	2557.41
220.631	2814.81
224.762	2528.04
228.891	1813.21
233.018	1164.09
237.144	829.726
241.267	577.839
245.388	471.794
249.507	451.476
253.624	374.427
257.739	327.973
261.852	294.342
265.962	279.434
270.071	235.928
274.178	250.354
278.283	176.698
282.385	144.844
286.486	225.058
290.584	136.035
294.681	96.88
298.775	96.76
302.868	95.887
306.958	126.714
311.047	93.196
315.133	64.771
319.217	122.425
323.299	69.851
327.38	98.188
331.458	119.561
335.534	122.934
339.608	56.796
343.681	55.045
347.751	71.673
351.819	115.191
355.885	26.374
359.949	11.309
364.011	40.621
368.071	83.948
372.129	68.19
376.185	14.072
380.239	56.611
384.291	12.18
388.341	8.154
392.389	13.361
396.435	31.183
400.479	16.409
404.521	38.22
408.561	9.318
412.599	3.586
416.636	10.528
420.67	5.855
424.702	2.422
428.732	1.518
432.76	32.505
436.786	1.554
440.81	51.396
444.832	0.314
448.852	34.156
452.87	21.944
456.887	34.505
460.901	53.64
464.913	51.687
468.923	68.969
472.931	1.51
476.938	8.286
480.942	52.281
484.944	0.216
488.945	10.082
492.943	25.164
496.94	70.481
500.934	78.077
504.927	89.343
508.917	13.112
512.906	31.906
516.892	13.713
520.877	47.413
524.86	4.795
528.841	35.946
532.82	30.667
536.796	140.36
540.771	0.256
544.744	17.823
548.715	48.694
552.684	132.666
556.652	110.749
560.617	61.005
564.58	58.244
568.541	16.743
572.501	30.226
576.458	123.905
580.414	14.038
584.367	45.812
588.319	87.457
592.268	127.689
596.216	6.548
600.162	6.352
604.106	92.983
608.048	86.52
611.988	49.979
615.926	36.774
619.862	19.014
623.797	43.365
627.729	71.828
631.659	80.42
635.588	76.5
639.515	59.088
643.439	65.479
647.362	82.77
651.283	115.748
655.202	97.484
659.119	6.001
663.034	142.042
666.947	152.108
670.859	157.83
674.768	125.631
678.676	175.516
682.581	180.474
686.485	1509.34
690.387	6051.99
694.287	1719.7
698.185	359.907
702.081	235.007
705.975	91.723
709.868	62.683
713.758	134.747
717.647	87.751
721.533	118.051
725.418	145.596
729.301	131.797
733.182	80.331
737.061	65.937
740.939	132.78
744.814	170.503
748.688	58.883
752.559	84.567
756.429	117.282
760.297	65.959
764.163	170.77
768.027	164.277
771.89	168.256
775.75	53.293
779.609	40.357
783.465	53.975
787.32	154.429
791.173	169.117
795.024	164.18
798.873	94.192
802.721	56.352
806.566	111.585
810.41	97.031
814.252	129.943
818.092	15.173
821.93	127.802
825.766	10.604
829.601	95.485
833.433	163.36
837.264	99.144
841.093	34.638
844.92	55.109
848.745	97.359
852.568	214.843
856.39	72.105
860.209	10.596
864.027	11.081
867.843	71.102
871.657	164.955
875.47	106.371
879.28	49.932
883.089	158.386
886.896	72.63
890.701	89.388
894.504	92.282
898.305	125.773
902.105	177.396
905.902	89.682
909.698	40.479
913.492	166.855
917.285	185.518
921.075	84.203
924.864	62.932
928.65	50.874
932.435	123.402
936.218	73.981
940	193.647
943.779	46.3
947.557	130.922
951.333	80.875
955.107	95.356
958.879	3.436
962.65	111.465
966.418	201.941
970.185	128.662
973.95	43.266
977.714	39.67
981.475	58.062
985.235	19.525
988.993	152.042
992.749	3.17
996.503	12.968
1000.26	25.265
1004.01	107.533
1007.75	35.477
1011.5	168.674
1015.25	115.137
1018.99	152.593
1022.73	128.478
1026.47	200.877
1030.21	106.76
1033.95	234.314
1037.68	367.532
1041.41	354.989
1045.15	296.521
1048.88	407.107
1052.6	673.787
1056.33	3954.4
1060.05	52514.5
1063.78	7214.59
1067.5	1102.9
1071.21	422.999
1074.93	254.938
1078.65	206.752
1082.36	211.594
1086.07	372.453
1089.78	272.559
1093.49	292.468
1097.2	192.087
1100.9	66.941
1104.6	150.351
1108.3	136.772
1112	118.205
1115.7	237.856
1119.4	136.997
1123.09	154.854
1126.78	1.949
1130.47	32.267
1134.16	44.867
1137.85	94.521
1141.54	227.75
1145.22	174.532
1148.9	184.608
1152.58	125.868
1156.26	25.741
1159.94	24.933
1163.61	12.409
1167.28	176.801
1170.95	190.366
1174.62	162.916
1178.29	150.105
1181.96	0.079
1185.62	110.055
1189.29	69.544
1192.95	76.652
1196.61	235.171
1200.26	222.249
1203.92	229.188
1207.57	215.89
1211.23	292.037
1214.88	108.465
1218.53	134.079
1222.17	239.466
1225.82	300.647
1229.46	286.177
1233.11	311.692
1236.74	216.406
1240.38	150.526
1244.02	84.525
1247.66	258.294
1251.29	202.356
1254.92	266.082
1258.55	379.979
1262.18	422.919
1265.81	246.872
1269.43	159.62
1273.06	162.076
1276.68	123.09
1280.3	34.714
1283.91	106.306
1287.53	96.827
1291.15	247.6
1294.76	298.532
1298.37	188.574
1301.98	66.94
1305.59	15.088
1309.19	76.303
1312.8	67.166
1316.4	8.767
1320	69.425
1323.6	77.2
1327.2	173.567
1330.8	180.929
1334.39	157.746
1337.98	14.079
1341.58	30.771
1345.16	6.772
1348.75	62.548
1352.34	148.583
1355.92	124.494
1359.51	189.868
1363.09	305.73
1366.67	221.994
1370.24	97.748
1373.82	34.969
1377.39	81.618
1380.97	197.28
1384.54	186.461
1388.11	255.55
1391.68	313.554
1395.24	361.891
1398.81	499.722
1402.37	386.042
1405.93	316.893
1409.49	147.785
1413.05	40.3
1416.6	24.904
1420.16	185.013
1423.71	141.63
1427.26	196.865
1430.81	216.426
1434.36	276.913
1437.91	267.7
1441.45	218.269
1444.99	138.511
1448.54	186.737
1452.08	207.299
1455.61	157.894
1459.15	106.468
1462.68	94.013
1466.22	319.392
1469.75	464.539
1473.28	502.94
1476.81	421.664
1480.33	429.51
1483.86	409.776
1487.38	230.777
1490.9	222.293
1494.42	205.03
1497.94	189.7
1501.46	76.639
1504.97	26.448
1508.49	200.521
1512	368.831
1515.51	426.158
1519.02	0
