Measurement: Raman, 514 nm, ccw, Raman Data Processed
Mineral: Witherite
Rruff sample: R040040
Ideal chemistry: BaCO_3_
Locality: Cave-in-Rock, Hardin County, Illinois, USA
Source: University of Arizona Mineral Museum
Description: Tan colored prismatic group of columnar crystals
Measured chemistry: (Ba_0.98_Sr_0.02_)_Î£=1_CO_3_; CO_2_ estimated by difference
Pin_id: L00241
Orientation: Laser parallel to -a* (-1 0 0). Fiducial mark perpendicular to laser is parallel to -c [0 0 -1]
Raman shift (cm-1)	intensity
106.604	0
110.777	20.836
114.949	58.16
119.119	55.358
123.286	173.427
127.452	394.139
131.615	1025.89
135.777	2601.41
139.937	2043.23
144.094	882.488
148.25	786.168
152.403	1586.86
156.555	3662.65
160.705	7232.88
164.853	2806.09
168.998	741.008
173.142	302.62
177.284	205.011
181.424	254.28
185.562	163.392
189.698	105.833
193.831	119.055
197.963	183.901
202.093	213.189
206.221	270.518
210.347	371.112
214.472	1050.04
218.594	2137.04
222.714	1648.2
226.832	1284.5
230.948	843.828
235.063	450.25
239.175	316.751
243.286	198.327
247.394	201.132
251.501	138.849
255.605	91.653
259.708	55.478
263.808	11.368
267.907	128.687
272.004	15.819
276.099	21.495
280.192	74.628
284.283	42.63
288.372	111.178
292.459	83.94
296.544	47.94
300.627	57.085
304.709	70.331
308.788	108.651
312.865	73.343
316.941	29.729
321.015	17.088
325.086	92.463
329.156	20.733
333.224	53.987
337.29	56.227
341.354	80.454
345.416	72.693
349.476	98.894
353.534	105.507
357.591	224.861
361.645	70.299
365.698	68.717
369.748	141.159
373.797	130.617
377.844	107.094
381.889	18.51
385.932	147.941
389.973	129.635
394.012	103.708
398.049	14.369
402.084	74.073
406.118	127.527
410.15	55.988
414.179	92.455
418.207	100.122
422.233	131.573
426.257	124.585
430.279	34.885
434.299	93.881
438.318	114.556
442.334	119.095
446.349	15.353
450.361	47.323
454.372	113.319
458.381	141.961
462.388	76.699
466.394	64.612
470.397	139.539
474.398	102.342
478.398	71.735
482.396	11.146
486.391	79.487
490.385	140.936
494.377	86.377
498.368	44.744
502.356	97.306
506.342	133.662
510.327	132.841
514.31	44.213
518.291	8.548
522.27	88.883
526.247	131.208
530.222	80.524
534.196	107.836
538.167	31.133
542.137	116.277
546.105	113.548
550.071	5.167
554.035	12.892
557.998	54.527
561.958	131.015
565.917	33.249
569.874	25.578
573.829	15.082
577.782	50.128
581.733	161.291
585.683	28.426
589.63	45.271
593.576	79.097
597.52	110.583
601.462	100.109
605.402	29.631
609.341	76.68
613.277	62.51
617.212	46.722
621.145	38.872
625.076	1.908
629.006	9.314
632.933	99.791
636.859	133.908
640.783	43.239
644.705	11.35
648.625	27.322
652.543	137.76
656.46	97.709
660.375	80.72
664.288	21.651
668.199	59.187
672.108	190.123
676.016	225.971
679.921	146.707
683.825	129.466
687.727	1088.9
691.628	4387.58
695.526	904.191
699.423	203.918
703.318	152.935
707.211	75.648
711.102	104.236
714.992	83.356
718.879	74.529
722.765	31.946
726.649	44.396
730.532	132.586
734.412	232.855
738.291	56.205
742.168	45.581
746.043	112.787
749.916	156.003
753.788	194.211
757.658	115.219
761.526	39.036
765.392	41.976
769.257	97.154
773.119	102.877
776.98	187.559
780.839	61.182
784.697	47.422
788.552	85.007
792.406	196.644
796.258	185.24
800.108	65.75
803.957	48.737
807.804	44.605
811.649	59.876
815.492	165.214
819.333	71.442
823.173	17.489
827.011	43.22
830.847	85.908
834.681	148.193
838.514	214.338
842.345	43.486
846.174	51.438
850.001	97.407
853.827	66.413
857.651	194.289
861.473	86.18
865.293	98.927
869.112	56.293
872.928	67.121
876.744	143.658
880.557	238.185
884.369	61.648
888.178	21.148
891.987	20.657
895.793	11.138
899.598	122.629
903.401	142.141
907.202	96.539
911.001	136.868
914.799	52.301
918.595	118.746
922.389	198.633
926.182	127.025
929.972	205.43
933.761	10.303
937.549	4.886
941.334	165.479
945.118	220.87
948.9	175.74
952.681	250.896
956.459	132.662
960.236	117.889
964.012	77.098
967.785	163.355
971.557	276.084
975.327	177.272
979.095	100.242
982.862	3.504
986.627	23.019
990.39	93.122
994.152	209.453
997.912	223.895
1001.67	193.269
1005.43	130.129
1009.18	30.103
1012.93	139.543
1016.68	168.006
1020.43	237.705
1024.18	213.695
1027.93	176.63
1031.67	171.322
1035.42	180.934
1039.16	629.478
1042.9	456.311
1046.63	364.605
1050.37	621.596
1054.11	985.567
1057.84	6037.35
1061.57	54840
1065.3	2774.3
1069.03	732
1072.75	505.524
1076.47	355.717
1080.2	236.966
1083.92	209.197
1087.64	84.22
1091.36	156.564
1095.07	183.94
1098.79	336.122
1102.5	292.351
1106.21	198.854
1109.92	142.881
1113.62	38.107
1117.33	43.333
1121.04	221.518
1124.74	229.474
1128.44	187.031
1132.14	202.604
1135.83	68.578
1139.53	78.877
1143.22	20.7
1146.92	223.919
1150.61	236.704
1154.3	231.552
1157.98	233.647
1161.67	58.958
1165.35	62.91
1169.04	40.301
1172.72	102.129
1176.4	109.249
1180.07	326.038
1183.75	412.652
1187.42	237.906
1191.1	20.793
1194.77	22.058
1198.44	23.256
1202.1	83.651
1205.77	198.456
1209.43	354.198
1213.1	275.745
1216.76	256.609
1220.42	182.51
1224.07	108.522
1227.73	230.7
1231.38	345.395
1235.04	305.238
1238.69	370.635
1242.34	385.4
1245.99	364.267
1249.63	325.207
1253.28	181.115
1256.92	121.801
1260.56	106.388
1264.2	185.394
1267.84	361.433
1271.48	325.986
1275.11	377.397
1278.74	214.368
1282.38	127.75
1286.01	61.373
1289.63	65.822
1293.26	123.03
1296.89	194.089
1300.51	183.083
1304.13	245.635
1307.75	207.018
1311.37	103.227
1314.99	80.296
1318.6	128.031
1322.22	23.406
1325.83	11.313
1329.44	2.285
1333.05	136.016
1336.66	322.722
1340.26	327.795
1343.87	364.586
1347.47	219.505
1351.07	83.059
1354.67	87.284
1358.27	43.574
1361.86	155.984
1365.46	168.568
1369.05	228.644
1372.64	331.759
1376.23	254.725
1379.82	313.139
1383.41	234.927
1386.99	247.081
1390.57	130.377
1394.16	111.189
1397.74	139.357
1401.32	328.109
1404.89	279.345
1408.47	347.709
1412.04	565.483
1415.61	503.53
1419.18	458.538
1422.75	1013.82
1426.32	323.924
1429.89	59.285
1433.45	118.357
1437.01	79.61
1440.58	94.729
1444.13	192.207
1447.69	364.682
1451.25	396.214
1454.81	388.796
1458.36	318.341
1461.91	126.673
1465.46	229.221
1469.01	145.627
1472.56	43.391
1476.1	76.342
1479.64	142.607
1483.19	257.689
1486.73	351.088
1490.27	384.511
1493.81	552.534
1497.34	393.469
1500.88	382.455
1504.41	159.137
1507.94	256.879
1511.47	5.857
1515	38.46
1518.53	0
