Measurement: Raman, 514 nm, ccw, Raman Data Processed
Mineral: Witherite
Rruff sample: R040040
Ideal chemistry: BaCO_3_
Locality: Cave-in-Rock, Hardin County, Illinois, USA
Source: University of Arizona Mineral Museum
Description: Tan colored prismatic group of columnar crystals
Measured chemistry: (Ba_0.98_Sr_0.02_)_Î£=1_CO_3_; CO_2_ estimated by difference
Pin_id: L00180
Orientation: Laser parallel to -c* (0 0 -1). Fiducial mark perpendicular to laser is parallel to -a [-1 0 0]
Raman shift (cm-1)	intensity
119.119	0
123.286	11.069
127.452	133.626
131.615	318.921
135.777	444.02
139.937	567.454
144.094	904.65
148.25	1153.31
152.403	1838.61
156.555	3704.15
160.705	4834.77
164.853	1409.12
168.998	531.903
173.142	210.738
177.284	76.396
181.424	165.687
185.562	48.745
189.698	3.535
193.831	97.847
197.963	136.735
202.093	185.992
206.221	89.272
210.347	363.473
214.472	955.697
218.594	1453.75
222.714	1384.76
226.832	1374.57
230.948	696.82
235.063	464.23
239.175	265.817
243.286	212.614
247.394	141.595
251.501	127.856
255.605	88.043
259.708	127.41
263.808	126.268
267.907	136.689
272.004	110.269
276.099	60.629
280.192	16.083
284.283	99.2
288.372	122.818
292.459	34.206
296.544	6.672
300.627	5.374
304.709	16.8
308.788	78.264
312.865	19.982
316.941	152.009
321.015	124.153
325.086	47.762
329.156	10.228
333.224	102.842
337.29	240.988
341.354	93.839
345.416	126.825
349.476	149.93
353.534	113.119
357.591	94.983
361.645	109.355
365.698	102.768
369.748	96.221
373.797	99.687
377.844	54.015
381.889	29.452
385.932	102.944
389.973	86.834
394.012	130.453
398.049	148.021
402.084	143.241
406.118	112.69
410.15	23.293
414.179	17.906
418.207	34.817
422.233	169.796
426.257	23.628
430.279	67.446
434.299	81.635
438.318	145.398
442.334	89.157
446.349	4.824
450.361	148.434
454.372	182.43
458.381	136.266
462.388	97.449
466.394	61.396
470.397	245.331
474.398	158.8
478.398	32.182
482.396	86.07
486.391	109.025
490.385	172.842
494.377	73.344
498.368	39.629
502.356	103.315
506.342	141.118
510.327	94.771
514.31	48.65
518.291	2.296
522.27	126.76
526.247	190.27
530.222	63.635
534.196	23.058
538.167	204.445
542.137	157.555
546.105	20.85
550.071	44.377
554.035	90.162
557.998	215.088
561.958	120.67
565.917	65.517
569.874	93.023
573.829	169.367
577.782	252.839
581.733	190.439
585.683	142.715
589.63	44.291
593.576	155.898
597.52	167.462
601.462	160.373
605.402	130.855
609.341	142.498
613.277	253.865
617.212	259.227
621.145	293.909
625.076	254.293
629.006	435.497
632.933	255.975
636.859	386.654
640.783	227.21
644.705	236.33
648.625	429.929
652.543	194.682
656.46	437.224
660.375	26.977
664.288	122.552
668.199	182.067
672.108	281.746
676.016	150.396
679.921	110.409
683.825	270.054
687.727	2059.11
691.628	3055.27
695.526	334.21
699.423	333.06
703.318	81.528
707.211	10.099
711.102	218.529
714.992	252.87
718.879	10.569
722.765	91.609
726.649	191.775
730.532	289.404
734.412	223.394
738.291	39.871
742.168	147.21
746.043	164.394
749.916	101.18
753.788	218.035
757.658	204.77
761.526	39.146
765.392	105.945
769.257	332.217
773.119	328.892
776.98	195.072
780.839	41.035
784.697	226.904
788.552	102.88
792.406	338.577
796.258	324.557
800.108	150.096
803.957	65.497
807.804	29.186
811.649	256.05
815.492	207.435
819.333	222.141
823.173	77.762
827.011	42.588
830.847	10.395
834.681	261.494
838.514	174.369
842.345	302.613
846.174	148.111
850.001	122.689
853.827	447.117
857.651	571.1
861.473	463.941
865.293	246.734
869.112	288.912
872.928	166.889
876.744	361.125
880.557	315.373
884.369	459.457
888.178	140.285
891.987	58.5
895.793	142.691
899.598	437.037
903.401	481.227
907.202	315.531
911.001	128.285
914.799	282.195
918.595	176.209
922.389	300.145
926.182	349.604
929.972	319.941
933.761	313.816
937.549	57.662
941.334	361.732
945.118	295.568
948.9	699.324
952.681	373.078
956.459	253.848
960.236	195.92
964.012	150.689
967.785	372.764
971.557	297.541
975.327	172.053
979.095	146.152
982.862	130.49
986.627	124.402
990.39	89.061
994.152	103.059
997.912	226.166
1001.67	569.891
1005.43	103.465
1009.18	77.014
1012.93	237.271
1016.68	170.889
1020.43	454.521
1024.18	567.422
1027.93	552.26
1031.67	226.426
1035.42	130.07
1039.16	464.555
1042.9	468.463
1046.63	741.535
1050.37	747.09
1054.11	1111
1057.84	16305.2
1061.57	14479.3
1065.3	1192.45
1069.03	776.195
1072.75	639.906
1076.47	653.141
1080.2	536.188
1083.92	429.186
1087.64	362.314
1091.36	364.758
1095.07	497.064
1098.79	429.168
1102.5	421.783
1106.21	464.494
1109.92	3.711
1113.62	42.158
1117.33	251.354
1121.04	463.816
1124.74	504.92
1128.44	355.508
1132.14	266.018
1135.83	39.309
1139.53	59.352
1143.22	217.43
1146.92	254.43
1150.61	655.771
1154.3	457.871
1157.98	469.182
1161.67	240.033
1165.35	155.613
1169.04	24.939
1172.72	94.512
1176.4	313.441
1180.07	413.844
1183.75	539.248
1187.42	478.832
1191.1	734.664
1194.77	2.205
1198.44	120.166
1202.1	332.793
1205.77	603.721
1209.43	590.801
1213.1	786.602
1216.76	730.977
1220.42	326.27
1224.07	291.801
1227.73	291.561
1231.38	416.039
1235.04	449.961
1238.69	572.988
1242.34	745.416
1245.99	696.318
1249.63	727.609
1253.28	368.361
1256.92	428.35
1260.56	435.537
1264.2	476.006
1267.84	535.658
1271.48	903.982
1275.11	781.721
1278.74	630.102
1282.38	425.289
1286.01	181.838
1289.63	70.854
1293.26	195.756
1296.89	290.701
1300.51	194.906
1304.13	508.555
1307.75	744.85
1311.37	566.932
1314.99	216.135
1318.6	91.033
1322.22	8.287
1325.83	78.262
1329.44	181.697
1333.05	260.332
1336.66	448.855
1340.26	305.539
1343.87	483.84
1347.47	341.1
1351.07	167.578
1354.67	133.732
1358.27	298.436
1361.86	7.514
1365.46	62.934
1369.05	338.264
1372.64	544.768
1376.23	492.342
1379.82	788.201
1383.41	675.26
1386.99	397.367
1390.57	199.033
1394.16	131.229
1397.74	18.984
1401.32	369.312
1404.89	608.338
1408.47	786.727
1412.04	803.533
1415.61	782.293
1419.18	597.629
1422.75	441.027
1426.32	312.564
1429.89	112.809
1433.45	189.984
1437.01	261.229
1440.58	548.129
1444.13	712.861
1447.69	1059.55
1451.25	1310.01
1454.81	1353.5
1458.36	1311.18
1461.91	1083.02
1465.46	656.449
1469.01	521.781
1472.56	462.523
1476.1	190.9
1479.64	449.459
1483.19	622.771
1486.73	1058.42
1490.27	875.744
1493.81	973.543
1497.34	993.195
1500.88	805.812
1504.41	783.104
1507.94	262.248
1511.47	58.982
1515	5.889
1518.53	129.023
1522.05	2.395
