Measurement: Raman, 514 nm, ccw, Raman Data Processed
Mineral: Wulfenite
Rruff sample: R050024
Ideal chemistry: PbMoO_4_
Locality: Old Yuma mine, Tucson, Arizona, USA
Source: Eugene Schlepp
Description: Orange flat tabular crystals
Pin_id: L00102
Orientation: Laser parallel to a* (1 0 0). Fiducial mark perpendicular to laser is parallel to -c [0 0 -1]
Raman shift (cm-1)	intensity
54.275	0
58.48	9.828
62.683	20.401
66.884	17.444
71.083	15.896
75.28	6.791
79.474	7.087
83.667	1.049
87.858	0.708
92.046	0.949
96.233	23.182
100.418	67.644
104.6	97.381
108.781	97.349
112.959	93.525
117.136	80.894
121.31	101.449
125.482	128.181
129.653	123.086
133.821	158.161
137.987	148.4
142.152	169.726
146.314	171.113
150.474	158.558
154.633	150.055
158.789	143.595
162.943	125.22
167.095	91.933
171.246	70.734
175.394	78.625
179.54	63.606
183.684	77.685
187.826	112.853
191.967	131.118
196.105	110.476
200.241	81.921
204.375	78.462
208.507	67.118
212.638	82.876
216.766	65.707
220.892	88.31
225.016	85.407
229.139	109.567
233.259	106.758
237.377	130.967
241.493	164.191
245.608	173.486
249.72	241.805
253.83	263.758
257.939	336.907
262.045	323.578
266.15	369.325
270.252	413.143
274.353	473.028
278.451	551.976
282.548	670.984
286.642	823.05
290.735	1040.17
294.826	1383.35
298.914	1905.59
303.001	2855.2
307.086	5111.54
311.168	10848.9
315.249	22889.4
319.328	28590
323.405	16710.5
327.48	7274.65
331.553	3482.25
335.624	1904.87
339.693	1219.66
343.76	904.641
347.826	684.63
351.889	545.982
355.95	502.505
360.01	425.234
364.067	327.483
368.123	283.684
372.176	239.566
376.228	211.606
380.277	186.955
384.325	179.527
388.371	166.723
392.415	134.903
396.457	120.782
400.497	99.201
404.535	75.602
408.571	66.547
412.605	82.611
416.638	58.341
420.668	43.351
424.697	31.635
428.723	22.388
432.748	16.847
436.77	17.144
440.791	10.53
444.81	0.191
448.827	13.451
452.842	7.839
456.855	10.553
460.867	5.917
464.876	2.313
468.883	7.61
472.889	5.687
476.892	0.22
480.894	3.271
484.894	7.722
488.892	7.36
492.888	1.047
496.882	0.296
500.874	3.449
504.865	0.441
508.853	1.333
512.84	3.516
516.824	1.857
520.807	0.745
524.788	0.879
528.767	3.432
532.744	10.709
536.719	0.014
540.693	2.179
544.664	6.661
548.634	1.585
552.601	0.494
556.567	11.468
560.531	2.612
564.493	8.257
568.453	12.088
572.412	4.882
576.368	3.63
580.323	4.33
584.275	6.013
588.226	1.588
592.175	4.142
596.122	1.349
600.068	0.111
604.011	13.523
607.952	13.893
611.892	4.785
615.83	4.531
619.766	2.658
623.7	3.52
627.632	5.568
631.563	4.391
635.491	1.568
639.418	1.636
643.343	1.098
647.266	2.544
651.187	1.365
655.106	0.84
659.024	1.607
662.939	2.769
666.853	8.534
670.765	3.575
674.675	8.384
678.583	7.194
682.49	9.228
686.394	2.591
690.297	15.124
694.198	10.298
698.097	10.435
701.995	13.702
705.89	7.204
709.784	15.54
713.675	19.249
717.565	15.854
721.453	32.266
725.34	52.759
729.224	94.105
733.107	168.813
736.988	387.306
740.867	960.953
744.744	1464.18
748.62	971.331
752.493	435.296
756.365	240.543
760.235	188.029
764.103	177.938
767.969	181.611
771.834	150.519
775.697	133.201
779.558	123.105
783.417	134.829
787.274	152.974
791.13	172.463
794.983	209.896
798.835	294.605
802.686	427.314
806.534	547.279
810.38	760.206
814.225	1108.09
818.068	1304.71
821.909	1144.29
825.749	1167
829.586	1306.12
833.422	1490.16
837.256	1741.43
841.088	1943.76
844.919	2281.12
848.748	2805.5
852.575	3678.96
856.4	5501.45
860.223	9093.16
864.045	19230.7
867.864	46620.5
871.682	53560.2
875.499	24250.1
879.313	9850.43
883.126	4758.38
886.937	2932.66
890.746	1974.86
894.553	1458.34
898.359	1149.73
902.163	916.088
905.965	750.764
909.765	639.2
913.564	563.553
917.361	529.547
921.156	461.468
924.949	377.554
928.74	371.709
932.53	315.5
936.318	291.098
940.104	265.09
943.889	237.801
947.672	229.493
951.453	208.226
955.232	179.006
959.01	152.826
962.785	112.681
966.559	77.575
970.332	71.568
974.102	54.545
977.871	62.596
981.638	46.657
985.404	55.808
989.167	56.934
992.929	25.26
996.689	24.446
1000.45	18.034
1004.2	9.283
1007.96	5.563
1011.71	7.866
1015.46	6.193
1019.21	5.543
1022.96	4.917
1026.71	9.69
1030.45	8.71
1034.19	6.876
1037.94	4.45
1041.68	7.013
1045.41	7.57
1049.15	10.877
1052.88	3.665
1056.62	9.796
1060.35	13.258
1064.08	0.727
1067.8	12.806
1071.53	11.27
1075.25	8.868
1078.97	0.512
1082.7	7.891
1086.41	5.714
1090.13	8.849
1093.85	3.226
1097.56	12.875
1101.27	17.828
1104.98	30.528
1108.69	7.005
1112.4	21.426
1116.1	2.957
1119.81	21.492
1123.51	24.931
1127.21	15.886
1130.91	15.506
1134.61	11.968
1138.3	8.39
1141.99	23.879
1145.68	12.344
1149.38	12.083
1153.06	10.894
1156.75	11.273
1160.43	18.456
1164.12	23.078
1167.8	43.439
1171.48	39.693
1175.16	32.445
1178.83	28.59
1182.51	24.55
1186.18	23.809
1189.85	18.85
1193.52	19.476
1197.19	14.629
1200.86	26.449
1204.52	15.145
1208.19	25.021
1211.85	16.877
1215.51	5.637
1219.17	11.121
1222.82	10.604
1226.48	8.351
1230.13	7.079
1233.78	3.572
1237.43	13.522
1241.08	0.695
1244.73	1.09
1248.37	9.911
1252.01	26.694
1255.66	13.443
1259.3	1.121
1262.93	6.701
1266.57	10.31
1270.21	0.111
1273.84	0.552
1277.47	239.958
1281.1	5.46
1284.73	6.924
1288.36	2.188
1291.98	11.58
1295.6	0.425
1299.23	3.905
1302.85	12.201
1306.46	4.482
1310.08	8.777
1313.7	13.988
1317.31	7.183
1320.92	8.336
1324.53	9.495
1328.14	3.103
1331.75	6.979
1335.35	8.087
1338.96	11.123
1342.56	4.137
1346.16	10.126
1349.76	8.091
1353.36	17.032
1356.95	1.067
1360.55	6.766
1364.14	11.635
1367.73	11.503
1371.32	9.374
1374.91	11.152
1378.49	7.91
1382.08	13.009
1385.66	17.618
1389.24	9.497
1392.82	13.395
1396.4	5.773
1399.97	10.552
1403.55	13.221
1407.12	13.992
1410.69	14.666
1414.26	10.155
1417.83	13.418
1421.4	7.047
1424.96	11.939
1428.53	8.101
1432.09	14.422
1435.65	8.897
1439.21	14.996
1442.76	9.401
1446.32	11.575
1449.87	3.572
1453.43	7.752
1456.98	3.891
1460.53	15.031
1464.07	2.34
1467.62	14.539
1471.16	12.706
1474.71	18.819
1478.25	8.071
1481.79	8.329
1485.32	12.316
1488.86	11.498
1492.39	15.637
1495.93	13.094
1499.46	10.689
1502.99	3.458
1506.52	18.002
1510.05	6.782
1513.57	5.273
1517.09	4.525
