Measurement: Raman, 514 nm, ccw, Raman Data Processed
Mineral: Wulfenite
Rruff sample: R050024
Ideal chemistry: PbMoO_4_
Locality: Old Yuma mine, Tucson, Arizona, USA
Source: Eugene Schlepp
Description: Orange flat tabular crystals
Pin_id: L00507
Orientation: Laser parallel to c* (0 0 1). Fiducial mark perpendicular to laser is parallel to a [1 0 0]
Raman shift (cm-1)	intensity
49.365	0
53.566	37.709
57.765	59.847
61.962	48.29
66.157	36.564
70.349	30.642
74.54	29.411
78.729	16.168
82.916	5.29
87.101	9.099
91.284	14.648
95.465	47.866
99.644	72.467
103.82	87.389
107.995	130.591
112.168	133.055
116.339	165.764
120.508	182.704
124.675	224.862
128.84	232.23
133.003	244.793
137.164	293.44
141.323	343.156
145.48	473.947
149.635	692.814
153.788	1098.72
157.939	1807.73
162.088	2912.85
166.235	3721.08
170.38	3328.43
174.523	2020.91
178.664	1106.51
182.803	610.199
186.94	417.991
191.076	293.89
195.209	225.89
199.34	169.002
203.47	146.211
207.597	117.528
211.722	89.936
215.846	93.892
219.967	83.141
224.087	67.611
228.204	60.193
232.32	51.861
236.434	65.516
240.545	84.289
244.655	78.183
248.763	93.749
252.869	93.876
256.973	107.091
261.075	120.393
265.175	128.809
269.273	137.284
273.369	151.927
277.463	150.634
281.556	192.326
285.646	235.168
289.734	282.51
293.821	402.906
297.905	555.954
301.988	853.961
306.069	1524.02
310.147	3046.11
314.224	6106.42
318.299	7413.59
322.372	4357.82
326.443	1983.65
330.512	1039.93
334.579	678.449
338.645	569.07
342.708	681.342
346.769	1485.9
350.829	1574.4
354.887	576.328
358.942	221.799
362.996	145.778
367.048	98.63
371.098	88.032
375.146	82.547
379.192	80.379
383.236	58.411
387.279	44.273
391.319	29.995
395.358	35.305
399.394	17.777
403.429	20.771
407.462	4.436
411.493	12.826
415.522	1.355
419.549	1.397
423.575	10.568
427.598	9.76
431.619	7.77
435.639	5.835
439.657	4.984
443.673	3.102
447.687	12.118
451.699	10.004
455.709	2.192
459.717	18.109
463.724	11.427
467.728	18.058
471.731	19.379
475.732	15.645
479.731	16.37
483.728	22.221
487.723	9.028
491.716	36.248
495.708	1.807
499.697	0.358
503.685	14.226
507.671	5.082
511.655	2.04
515.637	18.337
519.617	3.664
523.596	1.123
527.572	15.285
531.547	9.392
535.52	0.443
539.491	22.427
543.46	5.346
547.427	3.197
551.393	4.981
555.356	12.697
559.318	22.346
563.278	11.93
567.236	3.451
571.192	4.9
575.147	10.235
579.099	8.496
583.05	11.688
586.999	8.228
590.946	9.219
594.891	1.393
598.834	1.364
602.776	7.067
606.715	2.188
610.653	2.239
614.589	3.327
618.523	3.973
622.456	3.338
626.386	3.583
630.315	0.223
634.242	8.255
638.167	2.818
642.09	3.834
646.012	2.781
649.931	3.145
653.849	5.39
657.765	1.006
661.679	1.797
665.592	3.65
669.502	0.853
673.411	14.526
677.318	8.091
681.223	7.828
685.126	22.361
689.028	38.908
692.927	12.035
696.825	33.604
700.721	34.361
704.616	43.384
708.508	42.716
712.399	35.554
716.288	25.088
720.175	65.024
724.06	47.106
727.944	77.75
731.825	97.337
735.705	119.248
739.584	216.115
743.46	289.019
747.334	318.945
751.207	405.388
755.078	588.434
758.947	1133.76
762.815	2371.72
766.68	3827.42
770.544	2523.66
774.406	1211.45
778.267	751.641
782.125	604.125
785.982	576.808
789.837	563.184
793.69	575.142
797.542	570.393
801.391	628.565
805.239	803.554
809.085	1098.88
812.93	1477.31
816.772	1649.8
820.613	1403.05
824.452	1324.24
828.29	1378.94
832.125	1548.49
835.959	1678.29
839.791	1829.18
843.621	2153.12
847.45	2635.13
851.277	3425.35
855.102	4939.48
858.925	8121.03
862.746	16008.3
866.566	38236.6
870.384	49225
874.2	22303.5
878.015	8780.01
881.828	4353.81
885.639	2494.63
889.448	1753.32
893.256	1304.26
897.061	1034.18
900.865	875.196
904.668	784.974
908.468	644.746
912.267	562.425
916.064	495.839
919.86	416.359
923.653	391.462
927.445	362.785
931.236	293.382
935.024	322.117
938.811	325.093
942.596	296.864
946.379	284.694
950.161	254.572
953.94	262.65
957.719	220.652
961.495	164.713
965.27	110.514
969.043	51.768
972.814	39.975
976.583	34.756
980.351	33.335
984.117	35.696
987.882	46.078
991.644	39.539
995.405	26.002
999.165	7.5
1002.92	14.041
1006.68	7.613
1010.43	10.22
1014.18	26.862
1017.93	8.54
1021.68	19.249
1025.43	28.987
1029.18	6.251
1032.92	17.53
1036.66	18.336
1040.4	2.848
1044.14	24.971
1047.88	6.188
1051.62	20.353
1055.35	3.454
1059.08	1.756
1062.81	0.011
1066.54	0.68
1070.27	2.655
1073.99	28.03
1077.72	15.536
1081.44	7.108
1085.16	0.681
1088.88	29.234
1092.59	33.772
1096.31	18.308
1100.02	2.844
1103.73	18.146
1107.44	27.694
1111.15	21.31
1114.86	6.272
1118.57	35.807
1122.27	27.335
1125.97	17.784
1129.67	11.433
1133.37	17.022
1137.07	11.469
1140.76	37.493
1144.45	42.907
1148.15	53.927
1151.84	47.51
1155.53	45.009
1159.21	45.279
1162.9	38.027
1166.58	71.623
1170.26	72.362
1173.94	53.545
1177.62	60.658
1181.3	70.213
1184.97	49.299
1188.65	29.621
1192.32	47.479
1195.99	37.203
1199.66	61.524
1203.33	57.863
1206.99	62.222
1210.65	48.838
1214.32	48.717
1217.98	29.231
1221.64	35.571
1225.29	41.64
1228.95	44.503
1232.6	35
1236.26	26.802
1239.91	38.515
1243.56	21.289
1247.2	5.788
1250.85	14.761
1254.49	22.494
1258.13	28.971
1261.78	31.788
1265.41	30.24
1269.05	22.715
1272.69	5.594
1276.32	23.757
1279.95	12.023
1283.59	1.749
1287.21	14.5
1290.84	17.605
1294.47	26.769
1298.09	18.866
1301.72	11.904
1305.34	22.069
1308.96	1.016
1312.58	0.143
1316.19	26.666
1319.81	20.413
1323.42	11.12
1327.03	22.868
1330.64	15.517
1334.25	6.113
1337.86	31.657
1341.46	6.159
1345.07	24.63
1348.67	6.073
1352.27	12.497
1355.87	14.913
1359.46	18.318
1363.06	33.696
1366.65	15.079
1370.25	4.596
1373.84	18.936
1377.43	0.25
1381.02	9.671
1384.6	28.299
1388.18	1.467
1391.77	19.381
1395.35	22.765
1398.93	23.606
1402.51	31.024
1406.08	40.025
1409.66	18.712
1413.23	8.841
1416.8	26.088
1420.37	37.422
1423.94	18.677
1427.51	32.318
1431.08	47.013
1434.64	27.97
1438.2	46.869
1441.76	27.639
1445.32	21.46
1448.88	19.691
1452.43	27.148
1455.99	11.56
1459.54	46.305
1463.09	14.476
1466.64	2.556
1470.19	29.596
1473.74	63.511
1477.28	38.472
1480.83	35.587
1484.37	43.469
1487.91	25.623
1491.45	33.721
1494.98	28.915
1498.52	11.507
1502.05	12.606
1505.59	13.867
1509.12	1.638
1512.65	13.143
1516.17	55.449
1519.7	38.462
1523.23	0
