Measurement: Raman, 514 nm, ccw, Raman Data Processed
Mineral: Wulfenite
Rruff sample: R050024
Ideal chemistry: PbMoO_4_
Locality: Old Yuma mine, Tucson, Arizona, USA
Source: Eugene Schlepp
Description: Orange flat tabular crystals
Pin_id: L00102
Orientation: Laser parallel to a* (1 0 0). Fiducial mark perpendicular to laser is parallel to -c [0 0 -1]
Raman shift (cm-1)	intensity
55.677	0
59.882	0.094
64.084	10.802
68.284	13
72.482	24.354
76.678	30.363
80.872	6.534
85.064	8.546
89.254	4.17
93.442	27.505
97.628	70.386
101.812	130.736
105.994	157.471
110.174	164.022
114.351	194.883
118.527	220.51
122.701	256.396
126.873	277.428
131.042	310.896
135.21	367.49
139.376	440.299
143.539	541.206
147.701	738.176
151.861	1062.22
156.018	1752.33
160.174	3031.54
164.327	4364.87
168.479	4912.32
172.628	3694.9
176.776	2100.6
180.922	1145.43
185.065	713.384
189.207	499.458
193.346	398.651
197.484	296.96
201.619	211.386
205.753	162.924
209.884	166.58
214.014	151.352
218.141	116.242
222.267	117.788
226.391	105.418
230.512	91.209
234.632	97.095
238.749	91.034
242.865	102.103
246.979	122.963
251.09	138.958
255.2	158.265
259.308	148.87
263.414	160.594
267.517	176.445
271.619	196.463
275.719	205.518
279.817	248.665
283.913	290.904
288.007	358.226
292.099	456.652
296.189	651.211
300.277	920.78
304.363	1446.42
308.447	2789.13
312.529	5732.9
316.609	9781.73
320.687	8774.61
324.764	4365.56
328.838	2110.55
332.91	1169.6
336.981	812.885
341.049	772.075
345.116	1315.26
349.18	2535.57
353.243	1669.76
357.304	576.776
361.362	254.06
365.419	171.918
369.474	117.892
373.527	111.335
377.578	86.36
381.627	83.063
385.674	50.621
389.719	48.64
393.762	44.627
397.804	25.657
401.843	21.672
405.881	20.024
409.916	12.72
413.95	8.512
417.981	8.833
422.011	0.141
426.039	0.705
430.065	3.896
434.089	5.478
438.111	0.791
442.131	8.997
446.149	0.676
450.166	3.296
454.18	1.716
458.193	5.207
462.203	10.587
466.212	10.872
470.219	9.815
474.224	15.987
478.227	0.423
482.228	13.393
486.227	9.475
490.224	21.988
494.22	10.24
498.213	8.057
502.205	2.905
506.194	0.581
510.182	13.175
514.168	3.284
518.152	12.186
522.134	5.595
526.114	5.938
530.093	6.207
534.069	0.594
538.044	0.47
542.017	8.582
545.987	1.429
549.956	4.483
553.923	1.321
557.889	3.08
561.852	14.76
565.813	5.363
569.773	5.113
573.731	5.677
577.686	4.601
581.64	1.132
585.593	1.97
589.543	6.934
593.491	2.931
597.438	16.23
601.382	8.497
605.325	2.858
609.266	14.31
613.205	4.886
617.142	1.617
621.078	7.371
625.011	2.224
628.943	4.163
632.872	1.825
636.8	10.245
640.726	7.402
644.651	1.642
648.573	7.056
652.494	2.292
656.412	4.893
660.329	1.431
664.244	4.936
668.157	19.441
672.069	7.486
675.978	18.56
679.886	11.888
683.792	14.669
687.696	31.325
691.598	32.207
695.498	38.791
699.397	48.008
703.293	50.648
707.188	39.537
711.081	47.012
714.972	49.693
718.862	63.495
722.749	82.683
726.635	96.066
730.519	137.906
734.401	205.852
738.281	382.935
742.16	762.014
746.036	913.227
749.911	577.982
753.784	454.241
757.655	530.286
761.525	936.763
765.392	1885.27
769.258	1948.34
773.122	1109
776.984	612.245
780.844	482.301
784.703	446.284
788.56	471.487
792.415	519.429
796.268	576.719
800.119	708.077
803.969	918.334
807.816	1241.43
811.662	2025.6
815.506	2874.95
819.349	2652.38
823.189	2077.87
827.028	1824.42
830.865	1849.05
834.7	2073.74
838.534	2273.51
842.365	2537.35
846.195	2935.27
850.023	3607.26
853.85	5039.33
857.674	7490.47
861.497	13069.7
865.318	29179.2
869.137	61818.7
872.955	48888.2
876.77	19237.7
880.584	8219.34
884.396	4511.06
888.207	2753.86
892.015	1943.75
895.822	1431.1
899.627	1109.57
903.43	931.092
907.232	789.372
911.032	653.961
914.83	544.667
918.626	479.38
922.42	418.185
926.213	371.641
930.004	341.906
933.793	336.059
937.581	324.119
941.366	318.246
945.15	323.46
948.932	310.664
952.713	272.939
956.491	240.278
960.268	196.699
964.044	159.155
967.817	110.666
971.589	88.227
975.359	62.838
979.127	52.5
982.893	48.209
986.658	36.971
990.421	34.996
994.183	31.856
997.942	24.763
1001.7	21.714
1005.46	24.708
1009.21	8.412
1012.96	2.186
1016.71	7.079
1020.46	4.058
1024.21	14.235
1027.96	10.443
1031.7	15.682
1035.44	8.952
1039.18	11.248
1042.92	0.432
1046.66	9.093
1050.39	3.76
1054.13	8.566
1057.86	13.094
1061.59	8.78
1065.32	20.514
1069.05	17.32
1072.77	28.193
1076.49	0.861
1080.22	8.13
1083.94	5.172
1087.65	9.753
1091.37	3.667
1095.09	8.578
1098.8	13.479
1102.51	14.374
1106.22	23.333
1109.93	30.274
1113.63	31.206
1117.34	18.104
1121.04	25.957
1124.74	23.825
1128.44	26.885
1132.14	33.281
1135.84	26.846
1139.53	26.732
1143.22	25.926
1146.91	41.889
1150.61	31.899
1154.29	48.852
1157.98	59.813
1161.66	57.593
1165.35	70.51
1169.03	68.67
1172.71	77.69
1176.38	71.342
1180.06	79.274
1183.73	76.049
1187.41	69.558
1191.08	70.158
1194.75	74.423
1198.41	76.779
1202.08	75.092
1205.74	76.706
1209.41	69.99
1213.07	71.349
1216.73	60.745
1220.38	52.246
1224.04	44.29
1227.69	31.7
1231.35	34.47
1235	30.094
1238.65	22.775
1242.3	20.677
1245.94	20.651
1249.59	13.576
1253.23	14.389
1256.87	22.26
1260.51	11.505
1264.15	16.729
1267.78	17.333
1271.42	11.766
1275.05	7.694
1278.68	14.25
1282.31	14.671
1285.94	15.833
1289.56	9.192
1293.19	3.524
1296.81	0.752
1300.43	9.928
1304.05	0.093
1307.67	6.165
1311.29	6.187
1314.9	0.822
1318.52	13.096
1322.13	7.235
1325.74	8.146
1329.34	7.944
1332.95	6.671
1336.56	3.352
1340.16	5.993
1343.76	7.604
1347.36	12.183
1350.96	13.717
1354.56	7.221
1358.15	9.719
1361.74	3.781
1365.34	6.715
1368.93	3.217
1372.52	16.738
1376.1	11.365
1379.69	18.317
1383.27	18.594
1386.85	7.758
1390.43	14.816
1394.01	14.912
1397.59	9.695
1401.17	13.099
1404.74	15.356
1408.31	3.554
1411.88	2.619
1415.45	12.279
1419.02	7.829
1422.59	14.203
1426.15	17.087
1429.71	11.881
1433.28	5.841
1436.84	21.791
1440.39	9.27
1443.95	4.962
1447.5	10.489
1451.06	11.594
1454.61	10.558
1458.16	16.95
1461.71	9.104
1465.26	2.241
1468.8	4.315
1472.34	16.541
1475.89	9.855
1479.43	17.04
1482.97	25.268
1486.5	16.696
1490.04	29.091
1493.57	24.655
1497.11	28.829
1500.64	22.174
1504.17	21.511
1507.69	19.189
1511.22	12.438
1514.74	11.554
1518.27	0
