Measurement: Raman, 514 nm, ccw, Raman Data Processed
Mineral: Wulfenite
Rruff sample: R050024
Ideal chemistry: PbMoO_4_
Locality: Old Yuma mine, Tucson, Arizona, USA
Source: Eugene Schlepp
Description: Orange flat tabular crystals
Pin_id: L00507
Orientation: Laser parallel to c* (0 0 1). Fiducial mark perpendicular to laser is parallel to a [1 0 0]
Raman shift (cm-1)	intensity
49.365	0
53.566	25.611
57.765	34.718
61.962	32.517
66.157	19.346
70.349	14.158
74.54	13.284
78.729	5.667
82.916	6.122
87.101	0.472
91.284	22.466
95.465	54.856
99.644	83.614
103.82	109.681
107.995	137.024
112.168	163.623
116.339	196.465
120.508	195.534
124.675	213.82
128.84	245.312
133.003	262.996
137.164	306.762
141.323	341.593
145.48	444.497
149.635	652.473
153.788	969.509
157.939	1648.65
162.088	2552.91
166.235	3155.29
170.38	2745.78
174.523	1721.39
178.664	933.128
182.803	543.963
186.94	364.897
191.076	297.926
195.209	233.077
199.34	184.337
203.47	143.686
207.597	126.116
211.722	111.654
215.846	131.767
219.967	95.135
224.087	92.704
228.204	81.385
232.32	88.156
236.434	92.967
240.545	88.916
244.655	84.716
248.763	115.644
252.869	131.313
256.973	136.683
261.075	133.147
265.175	143.794
269.273	150.546
273.369	159.562
277.463	194.514
281.556	216.388
285.646	265.376
289.734	344.723
293.821	451.937
297.905	638.096
301.988	983.67
306.069	1671.92
310.147	3405.24
314.224	6608.6
318.299	7420.01
322.372	4266.45
326.443	2054.94
330.512	1071.48
334.579	692.912
338.645	489.167
342.708	483.906
346.769	830.528
350.829	971.302
354.887	313.244
358.942	157.899
362.996	108.736
367.048	81.697
371.098	66.528
375.146	50.923
379.192	74.889
383.236	64.425
387.279	40.302
391.319	32.102
395.358	42.066
399.394	20.616
403.429	0.794
407.462	9.197
411.493	20.664
415.522	26.533
419.549	11.619
423.575	14.8
427.598	3.938
431.619	2.453
435.639	4.99
439.657	3.44
443.673	0.106
447.687	15.383
451.699	13
455.709	13.542
459.717	7.704
463.724	7.14
467.728	14.255
471.731	0.58
475.732	6.89
479.731	25.329
483.728	15.234
487.723	6.564
491.716	2.39
495.708	17.637
499.697	12.549
503.685	14.451
507.671	5.301
511.655	3.144
515.637	28.917
519.617	16.6
523.596	11.772
527.572	17.769
531.547	17.251
535.52	4.667
539.491	10.015
543.46	8.293
547.427	9.506
551.393	18.653
555.356	3.713
559.318	13.684
563.278	5.585
567.236	0.586
571.192	9.167
575.147	13.858
579.099	5.512
583.05	2.015
586.999	0.317
590.946	15.622
594.891	4.515
598.834	27.365
602.776	4.705
606.715	10.335
610.653	14.765
614.589	4.889
618.523	3.777
622.456	7.135
626.386	10.429
630.315	7.901
634.242	17.672
638.167	1.676
642.09	0.022
646.012	13.193
649.931	1.917
653.849	5.391
657.765	6.011
661.679	35.922
665.592	25.804
669.502	14.547
673.411	3.444
677.318	24.38
681.223	20.937
685.126	21.727
689.028	10.448
692.927	23.387
696.825	35.117
700.721	65.089
704.616	47.795
708.508	58.641
712.399	59.958
716.288	60.217
720.175	82.432
724.06	107.278
727.944	153.798
731.825	152.573
735.705	201.283
739.584	270.156
743.46	371.39
747.334	476.981
751.207	702.844
755.078	1105.07
758.947	2182.95
762.815	4827.43
766.68	7226.19
770.544	4345.45
774.406	2153.95
778.267	1218.57
782.125	1058.75
785.982	984.106
789.837	947.266
793.69	830.712
797.542	785.478
801.391	811.88
805.239	926.529
809.085	1101.94
812.93	1465.96
816.772	1494.73
820.613	1321.56
824.452	1227.41
828.29	1232.33
832.125	1340.46
835.959	1468.54
839.791	1619.09
843.621	1828.66
847.45	2247.15
851.277	3011.6
855.102	4246.53
858.925	7012
862.746	13921.6
866.566	32918.2
870.384	40494.9
874.2	18551.9
878.015	7305.76
881.828	3645.95
885.639	2153.92
889.448	1501.24
893.256	1066.59
897.061	881.986
900.865	715.247
904.668	677.653
908.468	524.349
912.267	469.999
916.064	404.837
919.86	358.351
923.653	296.173
927.445	266.003
931.236	299.439
935.024	256.45
938.811	257.483
942.596	272.134
946.379	262.251
950.161	221.47
953.94	178.75
957.719	184.107
961.495	136.5
965.27	62.948
969.043	48.171
972.814	29.471
976.583	3.07
980.351	6.284
984.117	37.992
987.882	5.543
991.644	3.632
995.405	29.854
999.165	4.98
1002.92	31.829
1006.68	0.667
1010.43	3.527
1014.18	18.414
1017.93	17.337
1021.68	22.302
1025.43	30.294
1029.18	1.323
1032.92	26.371
1036.66	24.458
1040.4	41.569
1044.14	9.692
1047.88	11.825
1051.62	2.029
1055.35	11.118
1059.08	20.74
1062.81	31.371
1066.54	0.451
1070.27	15.504
1073.99	13.5
1077.72	22.49
1081.44	5.444
1085.16	15.68
1088.88	18.609
1092.59	32.523
1096.31	13.41
1100.02	15.291
1103.73	52.165
1107.44	19.073
1111.15	25.929
1114.86	44.986
1118.57	8.891
1122.27	37.895
1125.97	13.744
1129.67	0.586
1133.37	29.124
1137.07	27.822
1140.76	68.039
1144.45	43.265
1148.15	48.006
1151.84	32.835
1155.53	25.112
1159.21	46.638
1162.9	60.141
1166.58	87.919
1170.26	88.786
1173.94	79.154
1177.62	69.55
1181.3	70.814
1184.97	69.718
1188.65	75.368
1192.32	52.411
1195.99	76.603
1199.66	74.807
1203.33	48.176
1206.99	111.553
1210.65	64.905
1214.32	35.994
1217.98	65.248
1221.64	34.196
1225.29	47.442
1228.95	96.539
1232.6	59.965
1236.26	63.735
1239.91	59.084
1243.56	37.52
1247.2	35.385
1250.85	50.04
1254.49	59.873
1258.13	40.451
1261.78	69.042
1265.41	61.836
1269.05	22.62
1272.69	28.061
1276.32	34.861
1279.95	41.183
1283.59	14.599
1287.21	36.801
1290.84	55.943
1294.47	18.109
1298.09	41.294
1301.72	37.275
1305.34	33.198
1308.96	11.938
1312.58	11.131
1316.19	18.595
1319.81	36.017
1323.42	40.634
1327.03	53.191
1330.64	24.681
1334.25	34.116
1337.86	17.579
1341.46	10.985
1345.07	15.273
1348.67	0.472
1352.27	13.701
1355.87	39.847
1359.46	33.968
1363.06	55.062
1366.65	48.124
1370.25	38.432
1373.84	14.387
1377.43	36.167
1381.02	21.394
1384.6	33.402
1388.18	43.36
1391.77	54.135
1395.35	51.742
1398.93	53.063
1402.51	30.834
1406.08	43.283
1409.66	29.299
1413.23	41.611
1416.8	20.386
1420.37	27.588
1423.94	25.453
1427.51	17.747
1431.08	20.447
1434.64	71.976
1438.2	76.393
1441.76	87.435
1445.32	61.525
1448.88	35.527
1452.43	19.825
1455.99	35.83
1459.54	10.479
1463.09	47.081
1466.64	82.732
1470.19	58.264
1473.74	97.965
1477.28	103.413
1480.83	76.126
1484.37	54.934
1487.91	33.841
1491.45	49.378
1494.98	26.015
1498.52	40.674
1502.05	12.323
1505.59	30.867
1509.12	63.996
1512.65	55.769
1516.17	59.993
1519.7	54.439
