Measurement: Raman, 514 nm, ccw, Raman Data Processed
Mineral: Wulfenite
Rruff sample: R050024
Ideal chemistry: PbMoO_4_
Locality: Old Yuma mine, Tucson, Arizona, USA
Source: Eugene Schlepp
Description: Orange flat tabular crystals
Pin_id: L00102
Orientation: Laser parallel to a* (1 0 0). Fiducial mark perpendicular to laser is parallel to -c [0 0 -1]
Raman shift (cm-1)	intensity
55.677	0
59.882	9.895
64.084	21.645
68.284	10.986
72.482	15.741
76.678	14.353
80.872	2.048
85.064	3.641
89.254	1.563
93.442	43.09
97.628	113.25
101.812	352.851
105.994	332.816
110.174	193.086
114.351	155.632
118.527	154.435
122.701	174.482
126.873	194.76
131.042	216.261
135.21	206.977
139.376	230.899
143.539	276.923
147.701	362.015
151.861	467.179
156.018	697.404
160.174	1088.71
164.327	1540.12
168.479	1752.65
172.628	1386.3
176.776	844.07
180.922	597.956
185.065	554.957
189.207	632.071
193.346	634.297
197.484	471.633
201.619	277.086
205.753	190.646
209.884	128.33
214.014	100.123
218.141	95.026
222.267	91.621
226.391	95.502
230.512	81.463
234.632	84.492
238.749	103.516
242.865	131.654
246.979	142.733
251.09	155.974
255.2	176.673
259.308	198.311
263.414	212.056
267.517	239.908
271.619	259.92
275.719	313.992
279.817	364.111
283.913	403.315
288.007	538.603
292.099	697.971
296.189	958.41
300.277	1402.92
304.363	2226.55
308.447	4256.18
312.529	9038.87
316.609	16843.6
320.687	15544.4
324.764	7754.27
328.838	3438.33
332.91	1769.26
336.981	1098.24
341.049	825.551
345.116	861.909
349.18	1232.06
353.243	994.156
357.304	687.305
361.362	449.027
365.419	277.335
369.474	210.048
373.527	146.709
377.578	133.481
381.627	105.427
385.674	91.157
389.719	85.742
393.762	77
397.804	53.275
401.843	16.768
405.881	36.6
409.916	27.025
413.95	22.756
417.981	23.736
422.011	15.841
426.039	8.757
430.065	4.398
434.089	3.541
438.111	0.662
442.131	3.538
446.149	9.827
450.166	0.606
454.18	7.417
458.193	6.065
462.203	3.776
466.212	4.272
470.219	2.058
474.224	1.726
478.227	9.426
482.228	6.374
486.227	7.422
490.224	1.2
494.22	4.99
498.213	3.382
502.205	0.296
506.194	6.813
510.182	10.277
514.168	3.31
518.152	0.969
522.134	3.307
526.114	8.522
530.093	0.321
534.069	2.763
538.044	5.219
542.017	10.276
545.987	0.582
549.956	0.632
553.923	4.079
557.889	0.712
561.852	8.272
565.813	5.77
569.773	3.796
573.731	6.43
577.686	0.146
581.64	6.945
585.593	5.835
589.543	2.815
593.491	5.026
597.438	6.114
601.382	2.338
605.325	12.645
609.266	9.051
613.205	4.535
617.142	2.892
621.078	5.819
625.011	6.546
628.943	12.342
632.872	3.215
636.8	1.154
640.726	19.148
644.651	0.79
648.573	5.515
652.494	0.39
656.412	4.096
660.329	3.589
664.244	19.123
668.157	14.767
672.069	21.073
675.978	21.839
679.886	25.096
683.792	37.622
687.696	39.43
691.598	36.69
695.498	54.2
699.397	47.683
703.293	49.379
707.188	65.476
711.081	72.223
714.972	92.592
718.862	125.136
722.749	181.097
726.635	271.039
730.519	457.009
734.401	798.314
738.281	1937.7
742.16	4341.79
746.036	4463.29
749.911	2267.58
753.784	1106.79
757.655	742.162
761.525	717.246
765.392	1135.94
769.258	1130.27
773.122	659.128
776.984	430.628
780.844	334.695
784.703	310.739
788.56	324.856
792.415	346.504
796.268	399.668
800.119	513.98
803.969	660.421
807.816	850.854
811.662	1286.36
815.506	1820.02
819.349	1807.75
823.189	1498.54
827.028	1394.38
830.865	1470.3
834.7	1680.29
838.534	1873.35
842.365	2069.48
846.195	2413.68
850.023	2980.95
853.85	4055.3
857.674	6206.81
861.497	10901.4
865.318	24741.4
869.137	53331.4
872.955	42761.5
876.77	16931.4
880.584	7225.9
884.396	3907.09
888.207	2416.86
892.015	1665.86
895.822	1211.14
899.627	967.004
903.43	786.713
907.232	644.585
911.032	575.229
914.83	502.871
918.626	421.138
922.42	370.523
926.213	323.523
930.004	274.482
933.793	283.001
937.581	274.066
941.366	256.325
945.15	211.847
948.932	214.111
952.713	169.416
956.491	166.771
960.268	133.175
964.044	84.628
967.817	87.131
971.589	41.692
975.359	41.296
979.127	31.026
982.893	38.706
986.658	41.886
990.421	28.848
994.183	22.659
997.942	13.741
1001.7	24.627
1005.46	8.543
1009.21	3.494
1012.96	8.476
1016.71	11.519
1020.46	9.501
1024.21	4.537
1027.96	2.6
1031.7	1.675
1035.44	7.756
1039.18	12.159
1042.92	6.916
1046.66	1.998
1050.39	4.91
1054.13	3.84
1057.86	3.213
1061.59	3.27
1065.32	4.67
1069.05	2.63
1072.77	7.634
1076.49	0.313
1080.22	2.776
1083.94	10.903
1087.65	1.926
1091.37	0.743
1095.09	6.586
1098.8	9.39
1102.51	29.228
1106.22	17.003
1109.93	13.966
1113.63	25.743
1117.34	38.982
1121.04	21.883
1124.74	38.739
1128.44	19.6
1132.14	21.514
1135.84	7.43
1139.53	15.827
1143.22	6.949
1146.91	24.751
1150.61	27.513
1154.29	32.196
1157.98	30.428
1161.66	58.071
1165.35	56.022
1169.03	51.451
1172.71	61.507
1176.38	54.91
1180.06	56.685
1183.73	58.881
1187.41	53.286
1191.08	49.371
1194.75	44.451
1198.41	43.014
1202.08	43.926
1205.74	38.907
1209.41	40.009
1213.07	36.781
1216.73	37.314
1220.38	35.462
1224.04	28.907
1227.69	26.818
1231.35	27.711
1235	26.314
1238.65	24.956
1242.3	17.692
1245.94	10.456
1249.59	25.265
1253.23	4.936
1256.87	14.671
1260.51	1.72
1264.15	19.892
1267.78	9.407
1271.42	8.925
1275.05	3.255
1278.68	5.643
1282.31	15.385
1285.94	7.667
1289.56	3.701
1293.19	7.91
1296.81	12.044
1300.43	1.861
1304.05	9.2
1307.67	8.195
1311.29	1.17
1314.9	4.905
1318.52	15.023
1322.13	7.865
1325.74	6.275
1329.34	5.083
1332.95	3.813
1336.56	13.526
1340.16	12.188
1343.76	16.82
1347.36	18.434
1350.96	11.008
1354.56	16.512
1358.15	12.977
1361.74	11.417
1365.34	9.839
1368.93	9.248
1372.52	11.749
1376.1	6.089
1379.69	13.953
1383.27	22.041
1386.85	17.083
1390.43	11.893
1394.01	22.136
1397.59	2.713
1401.17	18.001
1404.74	12.241
1408.31	14.437
1411.88	13.863
1415.45	15.777
1419.02	11.881
1422.59	14.002
1426.15	12.545
1429.71	18.499
1433.28	10.375
1436.84	13.17
1440.39	16.009
1443.95	10.4
1447.5	10.784
1451.06	12.428
1454.61	13.952
1458.16	17.435
1461.71	8.795
1465.26	8.835
1468.8	3.529
1472.34	22.896
1475.89	8.156
1479.43	13.562
1482.97	23.986
1486.5	19.453
1490.04	8.716
1493.57	29.833
1497.11	12.629
1500.64	18.453
1504.17	8.095
1507.69	15.948
1511.22	0.749
1514.74	16.242
1518.27	0
