Measurement: Raman, 514 nm, ccw, Raman Data Processed
Mineral: Wulfenite
Rruff sample: R050024
Ideal chemistry: PbMoO_4_
Locality: Old Yuma mine, Tucson, Arizona, USA
Source: Eugene Schlepp
Description: Orange flat tabular crystals
Pin_id: L00507
Orientation: Laser parallel to c* (0 0 1). Fiducial mark perpendicular to laser is parallel to a [1 0 0]
Raman shift (cm-1)	intensity
49.365	0
53.566	17.056
57.765	15.178
61.962	24.369
66.157	15.589
70.349	11.006
74.54	25.194
78.729	4.276
82.916	4.912
87.101	7.483
91.284	30.489
95.465	65.929
99.644	91.756
103.82	145.906
107.995	179.344
112.168	202.053
116.339	231.018
120.508	263.228
124.675	288.671
128.84	292.343
133.003	327.227
137.164	370.221
141.323	415.294
145.48	540.447
149.635	747.675
153.788	1179.95
157.939	1903.33
162.088	2920.85
166.235	3685.5
170.38	3150.27
174.523	1927.16
178.664	1096.18
182.803	611.338
186.94	425.614
191.076	349.002
195.209	287.517
199.34	200.162
203.47	203.93
207.597	173.796
211.722	170.763
215.846	147.38
219.967	121.318
224.087	132.385
228.204	128.515
232.32	113.689
236.434	117.839
240.545	121.128
244.655	133.557
248.763	122.076
252.869	137.99
256.973	155.771
261.075	171.685
265.175	151.688
269.273	180.77
273.369	178.556
277.463	199.83
281.556	228.273
285.646	284.73
289.734	358.26
293.821	494.945
297.905	689.617
301.988	988.384
306.069	1750.45
310.147	3533.35
314.224	6946.8
318.299	7796.81
322.372	4427.89
326.443	2078.02
330.512	1111.2
334.579	735.679
338.645	598.894
342.708	740.29
346.769	1645.09
350.829	1642.87
354.887	574.3
358.942	229.846
362.996	170.285
367.048	124.286
371.098	108.748
375.146	62.25
379.192	78.29
383.236	68.751
387.279	59.496
391.319	32.194
395.358	54.628
399.394	40.258
403.429	16.658
407.462	1.883
411.493	23.257
415.522	27.989
419.549	11.878
423.575	22.31
427.598	4.2
431.619	16.452
435.639	6.38
439.657	11.841
443.673	11.357
447.687	1.481
451.699	30.568
455.709	12.504
459.717	1.613
463.724	17.409
467.728	13.011
471.731	10.272
475.732	7.064
479.731	26.245
483.728	26.596
487.723	23.098
491.716	7.265
495.708	5.479
499.697	2.87
503.685	19.791
507.671	2.304
511.655	17.495
515.637	39.244
519.617	15.939
523.596	36.802
527.572	9.38
531.547	9.899
535.52	6.364
539.491	31.764
543.46	3.106
547.427	35.386
551.393	7.609
555.356	7.764
559.318	6.83
563.278	1.186
567.236	7.701
571.192	38.519
575.147	5.254
579.099	3.926
583.05	19.487
586.999	12.022
590.946	19.966
594.891	0.061
598.834	1.754
602.776	3.742
606.715	8.243
610.653	13.148
614.589	7.888
618.523	4.404
622.456	11.749
626.386	4.524
630.315	13.536
634.242	3.174
638.167	15.895
642.09	2.704
646.012	0.422
649.931	5.487
653.849	12.274
657.765	2.157
661.679	13.046
665.592	8.007
669.502	14.848
673.411	29.594
677.318	1.787
681.223	32.927
685.126	54.029
689.028	39.695
692.927	37.246
696.825	3.435
700.721	47.829
704.616	37.471
708.508	19.786
712.399	51.477
716.288	41.947
720.175	69.276
724.06	90.385
727.944	80.52
731.825	100.74
735.705	118.967
739.584	162.979
743.46	254.054
747.334	322.15
751.207	404.104
755.078	643.756
758.947	1169.35
762.815	2627.02
766.68	4182.21
770.544	2680.47
774.406	1319.28
778.267	791.09
782.125	651.76
785.982	615.34
789.837	600.983
793.69	601.342
797.542	616.159
801.391	665.194
805.239	820.406
809.085	1135.68
812.93	1564.4
816.772	1658.8
820.613	1401.24
824.452	1339.77
828.29	1352.35
832.125	1495.05
835.959	1610.54
839.791	1787.3
843.621	2110.77
847.45	2562.3
851.277	3452.24
855.102	5006.24
858.925	8082.34
862.746	15873.5
866.566	38008.6
870.384	46504.2
874.2	20729.6
878.015	8192.98
881.828	4106.48
885.639	2418.39
889.448	1648.22
893.256	1232.9
897.061	957.757
900.865	786.169
904.668	780.129
908.468	597.19
912.267	553.854
916.064	440.129
919.86	429.421
923.653	333.809
927.445	267.736
931.236	290.948
935.024	331.564
938.811	300.074
942.596	287.735
946.379	292.575
950.161	238.536
953.94	239.512
957.719	196.543
961.495	115.646
965.27	80.756
969.043	81.014
972.814	27.268
976.583	8.57
980.351	4.92
984.117	19.313
987.882	26.365
991.644	4.257
995.405	20.218
999.165	2.346
1002.92	21.012
1006.68	6.653
1010.43	15.331
1014.18	20.045
1017.93	12.798
1021.68	1.591
1025.43	1.434
1029.18	26.333
1032.92	36.259
1036.66	35.211
1040.4	10.18
1044.14	10.154
1047.88	0.108
1051.62	7.054
1055.35	18.986
1059.08	15.964
1062.81	45.938
1066.54	23.917
1070.27	29.909
1073.99	33.103
1077.72	14.175
1081.44	14.724
1085.16	11.37
1088.88	44.569
1092.59	34.468
1096.31	54.369
1100.02	17.268
1103.73	34.161
1107.44	8.053
1111.15	37.939
1114.86	13.801
1118.57	30.638
1122.27	65.457
1125.97	32.481
1129.67	26.232
1133.37	16.126
1137.07	40.884
1140.76	62.659
1144.45	21.898
1148.15	31.547
1151.84	42.272
1155.53	39.952
1159.21	27.615
1162.9	36.527
1166.58	64.543
1170.26	61.01
1173.94	56.818
1177.62	93.364
1181.3	66.206
1184.97	58.293
1188.65	77.491
1192.32	75.175
1195.99	60.507
1199.66	80.329
1203.33	100.5
1206.99	57.503
1210.65	76.732
1214.32	62.014
1217.98	71.425
1221.64	39.368
1225.29	66.323
1228.95	65.759
1232.6	146.461
1236.26	65.822
1239.91	35.852
1243.56	52.226
1247.2	49.038
1250.85	67.01
1254.49	67.664
1258.13	74.3
1261.78	53.999
1265.41	68.699
1269.05	18.196
1272.69	43.951
1276.32	35.355
1279.95	56.663
1283.59	31.28
1287.21	9.919
1290.84	43.357
1294.47	48.462
1298.09	71.47
1301.72	55.461
1305.34	14.407
1308.96	14.183
1312.58	9.115
1316.19	7.508
1319.81	23.052
1323.42	77.522
1327.03	108.925
1330.64	99.27
1334.25	29.526
1337.86	31.728
1341.46	23.89
1345.07	42.996
1348.67	19.052
1352.27	0.059
1355.87	57.005
1359.46	57.906
1363.06	92.016
1366.65	45.863
1370.25	26.714
1373.84	14.477
1377.43	14.725
1381.02	20.41
1384.6	4.351
1388.18	57.233
1391.77	57.061
1395.35	98.812
1398.93	89.329
1402.51	66.78
1406.08	53.621
1409.66	39.382
1413.23	6.521
1416.8	41.18
1420.37	36.529
1423.94	8.203
1427.51	55.079
1431.08	45.36
1434.64	78.195
1438.2	73.686
1441.76	103.55
1445.32	80.089
1448.88	80.511
1452.43	18.522
1455.99	37.125
1459.54	19.928
1463.09	58.266
1466.64	44.05
1470.19	69.355
1473.74	82.727
1477.28	82.425
1480.83	69.443
1484.37	66.661
1487.91	62.51
1491.45	30.483
1494.98	57.418
1498.52	0.553
1502.05	5.817
1505.59	50.318
1509.12	33.057
1512.65	37.789
1516.17	64.519
1519.7	75.497
