Measurement: Raman, 514 nm, ccw, Raman Data Processed
Mineral: Xenotime-(Y)
Rruff sample: R050178
Ideal chemistry: YPO_4_
Locality: Novo Horizonte, Bahia, Brazil
Source: Marcus Origlieri
Description: Brown crystal fragments
Measured chemistry: (Y_0.74_Dy_0.09_Gd_0.06_Er_0.04_Yb_0.02_Ho_0.01_Tb_0.01_Sm_0.01_Eu_0.01_)_Σ=1.00_(P_0.97_As_0.02_Si_0.01_)_Σ=1.00_O_4_
Pin_id: L00394
Orientation: Laser parallel to -c* (0 0 -1). Fiducial mark perpendicular to laser is parallel to a [1 0 0]
Raman shift (cm-1)	intensity
48.666	0
52.873	188.196
57.079	251.27
61.283	444.505
65.484	285.396
69.684	164.41
73.881	78.446
78.076	71.191
82.27	14.734
86.461	11.197
90.65	66.319
94.838	118.48
99.023	190.458
103.206	173.831
107.387	176.245
111.566	131.549
115.744	119.287
119.919	94.437
124.092	46.229
128.263	0.529
132.432	3.422
136.599	1.628
140.764	33.915
144.927	47.622
149.088	53.854
153.247	52.928
157.404	51.852
161.559	33.377
165.711	186.767
169.862	406.328
174.011	628.911
178.158	345.405
182.303	0.182
186.446	81.757
190.587	13.062
194.726	46.48
198.862	73.505
202.997	111.036
207.13	311.163
211.261	472.93
215.39	872.008
219.517	1514.37
223.642	2474.61
227.765	3048.47
231.886	2557.86
236.005	2319.73
240.122	2823.2
244.237	3782.21
248.35	3519.76
252.461	3201.19
256.57	3315.15
260.677	3335.7
264.782	2417.37
268.885	1546.51
272.986	1046.42
277.085	1268.08
281.182	2078.92
285.278	1687.17
289.371	961.341
293.462	827.118
297.552	966.286
301.639	795.941
305.724	662.403
309.808	654.128
313.889	860.107
317.969	1031.45
322.046	1373.18
326.122	2328.18
330.196	4494.83
334.267	5563.94
338.337	5808.51
342.405	5030.56
346.471	4239.08
350.535	3970.79
354.597	4218.83
358.657	4400.86
362.715	4132.4
366.771	3845.44
370.825	3323.99
374.877	2469.05
378.928	1949.6
382.976	1861.53
387.023	1800.85
391.067	1764.57
395.11	1472.73
399.15	905.327
403.189	378.397
407.226	200.96
411.261	173.044
415.294	187.673
419.325	178.854
423.354	212.58
427.381	357.846
431.406	387.657
435.43	258.013
439.451	202.915
443.471	311.281
447.488	514.748
451.504	487.84
455.518	488.117
459.53	724.047
463.54	1043.07
467.548	1225.35
471.554	1536.38
475.558	2219.91
479.561	3387.63
483.561	4063.68
487.559	3358.91
491.556	2118.73
495.551	1311.14
499.544	866.139
503.535	442.723
507.524	187.894
511.511	138.883
515.496	158.915
519.48	160.877
523.461	123.812
527.441	221.753
531.418	411.354
535.394	486.526
539.368	349.698
543.34	255.287
547.311	283.26
551.279	285.619
555.245	252.718
559.21	113.357
563.173	168.387
567.133	263.379
571.092	316.45
575.049	297.087
579.005	238.089
582.958	242.145
586.909	234.97
590.859	157.998
594.807	63.278
598.753	48.492
602.697	7.973
606.639	54.599
610.579	1.31
614.518	59.21
618.454	68.069
622.389	7.955
626.322	16.19
630.253	83.535
634.182	93.361
638.109	79.823
642.035	44.176
645.958	158.515
649.88	288.174
653.8	844.178
657.718	1342.24
661.634	467.229
665.549	259.606
669.461	149.36
673.372	154.51
677.281	174.432
681.188	294.907
685.093	309
688.997	312.887
692.898	300.74
696.798	346.243
700.696	421.553
704.592	454.549
708.486	512.451
712.378	461.53
716.269	555.88
720.158	646.827
724.045	662.421
727.93	662.687
731.813	620.688
735.694	695.963
739.574	834.533
743.452	844.24
747.328	835.835
751.202	781.459
755.075	769.969
758.945	787.471
762.814	824.319
766.681	763.086
770.546	715.663
774.409	688.549
778.271	765.119
782.131	835.866
785.989	847.32
789.845	852.696
793.699	881.133
797.552	955.672
801.402	1058.15
805.251	1149.23
809.098	1195.91
812.944	1182.34
816.787	1168.99
820.629	1219.6
824.469	1255.24
828.307	1176.82
832.144	1112.33
835.978	1024.68
839.811	974.925
843.642	1031.78
847.472	1037.31
851.299	979.386
855.125	894.473
858.949	850.314
862.771	820.189
866.591	899.169
870.41	914.554
874.227	783.885
878.042	653.249
881.855	527.765
885.667	602.8
889.476	642.282
893.284	580.133
897.09	513.211
900.895	436.408
904.698	584.548
908.499	683.553
912.298	588.04
916.095	309.904
919.891	138.39
923.685	144.884
927.477	239.369
931.267	229.338
935.056	183.34
938.843	240.178
942.628	470.075
946.411	562.104
950.193	555.426
953.973	425.011
957.751	348.07
961.527	246.921
965.302	348.233
969.075	447.97
972.846	350.486
976.615	76.295
980.383	635.486
984.149	1536.87
987.913	2774.66
991.675	5584.81
995.436	17732.8
999.195	21149.4
1002.95	12765.9
1006.71	19982.6
1010.46	30901.2
1014.21	29410
1017.96	18040.8
1021.71	9512.81
1025.46	5764.56
1029.2	3894.24
1032.95	3192.98
1036.69	3376.23
1040.43	4650.22
1044.17	5373.71
1047.9	6558.28
1051.64	13416.1
1055.37	27748.4
1059.1	19244.7
1062.83	17421.6
1066.56	14356.7
1070.29	9174.03
1074.01	5157.71
1077.73	3397.14
1081.46	2898.16
1085.17	3587.76
1088.89	5947.35
1092.61	11957.1
1096.32	16766.1
1100.04	12950.8
1103.75	12959.9
1107.46	20595.6
1111.16	36093.6
1114.87	51027.2
1118.57	46936.7
1122.28	31294
1125.98	19700.8
1129.67	13925.9
1133.37	11495.3
1137.07	11789.2
1140.76	13767.8
1144.45	17561.2
1148.14	23129.4
1151.83	30142.7
1155.52	34440.9
1159.21	32834.1
1162.89	26582.3
1166.57	18485.5
1170.25	12563.9
1173.93	8177.34
1177.61	5065.92
1181.28	3239.64
1184.96	2288.53
1188.63	2612.54
1192.3	4071.7
1195.97	6386.02
1199.64	9865.46
1203.3	14799.9
1206.97	18419.2
1210.63	17473.4
1214.29	14492.6
1217.95	12517
1221.6	12696.9
1225.26	15302.3
1228.91	20133.4
1232.57	26004.9
1236.21	31142.6
1239.86	34718.8
1243.51	36958.1
1247.16	38790.6
1250.8	39072
1254.44	37113.8
1258.08	31551.4
1261.72	25826.8
1265.36	20010.8
1268.99	16329.5
1272.63	14684
1276.26	15334.9
1279.89	17350.8
1283.52	20063.2
1287.15	23482
1290.77	25798.4
1294.4	26634
1298.02	26790.8
1301.64	26859.5
1305.26	25176.7
1308.88	21420.1
1312.49	18023.2
1316.11	15776.8
1319.72	13400
1323.33	11592.6
1326.94	9807.52
1330.55	8359.52
1334.15	6844.23
1337.76	5240.34
1341.36	4027.62
1344.96	3225.23
1348.56	2934.18
1352.16	2594.44
1355.75	2263.1
1359.35	2102.65
1362.94	1351.99
1366.53	920.674
1370.12	248.891
1373.71	326.17
1377.3	292.962
1380.88	443.612
1384.46	360.17
1388.05	112.767
1391.63	176.326
1395.2	4.024
1398.78	144.734
1402.36	168.607
1405.93	198.158
1409.5	350.001
1413.07	337.662
1416.64	245.03
1420.21	9.298
1423.78	16.564
1427.34	144.351
1430.9	268.716
1434.46	320.744
1438.02	281.692
1441.58	246.998
1445.13	283.268
1448.69	243.247
1452.24	222.271
1455.79	370.16
1459.34	480.908
1462.89	643.654
1466.44	779.107
1469.98	892.692
1473.53	1008.18
1477.07	986.254
1480.61	963.515
1484.14	829.131
1487.68	673.389
1491.22	490.751
1494.75	525.438
1498.28	432.77
1501.81	459.687
1505.34	516.292
1508.87	473.815
1512.4	382.11
1515.92	439.459
1519.44	362.564
1522.96	0
