Measurement: Raman, 514 nm, ccw, Raman Data Processed
Mineral: Xenotime-(Y)
Rruff sample: R050178
Ideal chemistry: YPO_4_
Locality: Novo Horizonte, Bahia, Brazil
Source: Marcus Origlieri
Description: Brown crystal fragments
Measured chemistry: (Y_0.74_Dy_0.09_Gd_0.06_Er_0.04_Yb_0.02_Ho_0.01_Tb_0.01_Sm_0.01_Eu_0.01_)_Σ=1.00_(P_0.97_As_0.02_Si_0.01_)_Σ=1.00_O_4_
Pin_id: M00421
Orientation: Laser parallel to a* (1 0 0). Fiducial mark perpendicular to laser is parallel to c [0 0 1]
Raman shift (cm-1)	intensity
101.036	0
105.212	12.939
109.387	140.738
113.559	13.882
117.729	65.878
121.897	74.014
126.063	107.433
130.228	107.199
134.39	106.152
138.55	71.247
142.709	31.639
146.865	18.712
151.019	42.484
155.171	27.878
159.322	8.448
163.47	16.674
167.617	41.816
171.761	202.877
175.904	629.89
180.044	837.887
184.183	377.931
188.319	31.606
192.454	89.643
196.586	43.397
200.717	23.913
204.846	58.705
208.972	115.392
213.097	224.185
217.22	541.225
221.341	1012.92
225.46	1764.33
229.577	2978.41
233.692	3632.99
237.805	2907.29
241.916	2535.36
246.025	3456.2
250.132	4634.83
254.237	4072.24
258.34	3458.44
262.442	3851.42
266.541	3909.56
270.639	2525.43
274.734	1364.32
278.828	1237.04
282.919	1747.76
287.009	2414.48
291.097	1723.21
295.183	1167.49
299.266	1113.26
303.348	944.286
307.428	771.596
311.507	701.193
315.583	837.543
319.657	903.344
323.729	1019.03
327.8	1625.94
331.868	2672.7
335.935	4458.1
339.999	6494.08
344.062	7355.63
348.123	6105.75
352.182	4728.43
356.239	4523.61
360.294	5137.94
364.347	5168.66
368.398	4176.17
372.448	4096.65
376.495	3710.7
380.54	2730.34
384.584	1958.56
388.626	2026.37
392.666	2383.76
396.704	2298.74
400.74	1533.3
404.774	976.429
408.806	588.116
412.836	383.355
416.865	210.142
420.891	186.466
424.916	274.321
428.939	402.68
432.959	269.43
436.978	248.608
440.996	356.265
445.011	516.8
449.024	590.834
453.036	655.664
457.045	873.194
461.053	1071.97
465.059	1098.04
469.063	1170.55
473.065	1380.33
477.065	1999.02
481.063	2927.23
485.06	3903.07
489.054	4447.93
493.047	3866.51
497.038	2644.99
501.027	1482.12
505.014	784.894
508.999	477.306
512.982	305.367
516.964	234.281
520.944	134.879
524.921	121.182
528.897	301.25
532.871	425.133
536.844	378.722
540.814	272.875
544.783	358.49
548.749	423.9
552.714	284.006
556.677	139.96
560.638	187.736
564.597	287.198
568.555	355.011
572.511	310.389
576.464	286.111
580.416	364.981
584.366	471.06
588.315	338.817
592.261	152.595
596.206	135.829
600.148	94.585
604.089	119.924
608.028	13.441
611.965	57.056
615.901	39.907
619.834	9.62
623.766	3.917
627.696	53.129
631.624	153.951
635.551	110.662
639.475	10.75
643.398	32.738
647.318	11.702
651.237	73.971
655.155	376.734
659.07	1413.03
662.984	1420.34
666.895	402.282
670.805	134.216
674.713	207.222
678.62	255.938
682.524	297.656
686.427	202.984
690.328	244.263
694.227	297.662
698.124	392.42
702.02	375.03
705.913	356.858
709.805	328.133
713.695	418.1
717.584	569.454
721.47	538.025
725.355	519.845
729.238	476.505
733.119	535.381
736.998	620.072
740.876	674.224
744.752	656.292
748.626	600.518
752.498	642.551
756.368	704.552
760.237	680.094
764.104	611.484
767.969	527.651
771.832	549.19
775.693	643.294
779.553	697.449
783.411	699.628
787.267	619.657
791.122	662.779
794.974	771.693
798.825	900.94
802.674	971.78
806.522	982.435
810.367	936.231
814.211	944.182
818.053	1067.83
821.893	1090.03
825.732	1056.05
829.568	956.638
833.403	955.376
837.236	938.022
841.068	998.063
844.898	978.278
848.726	859.36
852.552	780.523
856.376	725.267
860.199	904.719
864.02	919.019
867.839	924.547
871.656	857.094
875.472	706.909
879.286	638.005
883.098	719.998
886.909	726.676
890.717	628.923
894.524	500.437
898.33	415.566
902.133	428.07
905.935	616.205
909.735	894.766
913.533	922.231
917.33	443.076
921.124	79.663
924.918	86.77
928.709	119.057
932.499	132.737
936.286	227.312
940.073	477.52
943.857	536.987
947.64	467.357
951.421	427.126
955.2	257.352
958.978	279.089
962.753	337.192
966.527	476.356
970.3	513.127
974.071	224.431
977.84	134.849
981.607	423.572
985.372	922.016
989.136	1476.72
992.898	3076.96
996.659	8416.44
1000.42	28353.5
1004.17	20158.7
1007.93	12636.3
1011.68	17520.1
1015.43	23614.5
1019.18	21351.1
1022.93	14180.3
1026.68	9280.41
1030.42	6121.06
1034.17	4171.86
1037.91	3712.93
1041.65	4974.37
1045.39	7885.62
1049.12	10057.4
1052.86	11928.8
1056.59	21652.3
1060.33	30541.8
1064.06	23503.1
1067.78	26705.5
1071.51	21293.2
1075.23	12653.1
1078.96	7512.46
1082.68	4315.13
1086.4	2792.23
1090.12	2723.2
1093.83	5002.85
1097.55	10630.4
1101.26	14279.8
1104.97	11870.6
1108.68	12953.9
1112.39	19185.3
1116.1	30205.2
1119.8	39108.1
1123.5	34173.3
1127.2	24260.9
1130.9	17766.1
1134.6	13357.4
1138.3	11192.9
1141.99	11062.8
1145.69	13257.2
1149.38	18096.3
1153.07	26940
1156.76	35668.4
1160.44	39331.6
1164.13	36489.6
1167.81	26822.3
1171.49	18499.8
1175.17	12782
1178.85	9848.94
1182.52	7430.7
1186.2	5617.28
1189.87	4258.68
1193.54	3474.9
1197.21	3065.93
1200.88	3911.8
1204.55	6182.43
1208.21	9927.67
1211.88	13517.5
1215.54	13981.9
1219.2	11860.9
1222.86	9954.99
1226.51	9544.33
1230.17	11271.7
1233.82	15400.9
1237.47	20677.3
1241.12	26949.5
1244.77	31636.7
1248.42	33777.9
1252.06	33141.7
1255.71	30103.3
1259.35	25802.2
1262.99	21128
1266.63	16869.9
1270.26	14415.3
1273.9	13275.1
1277.53	13402.9
1281.16	14403.9
1284.8	15060.9
1288.42	16295.6
1292.05	17965.1
1295.68	18689
1299.3	19918.8
1302.92	21370.2
1306.55	23314.1
1310.16	22501.4
1313.78	20183.8
1317.4	16856.3
1321.01	13441.4
1324.62	10766
1328.24	8665.85
1331.85	7384.24
1335.45	6703.89
1339.06	6475.44
1342.66	5457.49
1346.27	4640.48
1349.87	3472.57
1353.47	2605.72
1357.07	1579.21
1360.66	1241.25
1364.26	574.105
1367.85	497.633
1371.44	289.499
1375.04	30.876
1378.62	251.588
1382.21	103.265
1385.8	47.411
1389.38	218.268
1392.96	403.806
1396.54	598.199
1400.12	661.171
1403.7	626.707
1407.28	354.098
1410.85	167.841
1414.42	129.745
1417.99	289.224
1421.56	455.726
1425.13	207.274
1428.7	239.913
1432.26	26.83
1435.83	2.73
1439.39	16.382
1442.95	92.282
1446.51	235.872
1450.06	496.015
1453.62	586.934
1457.17	758.077
1460.73	796.888
1464.28	812.452
1467.83	624.621
1471.37	617.784
1474.92	575.871
1478.46	548.461
1482.01	577.645
1485.55	537.913
1489.09	664.782
1492.63	763.229
1496.16	720.159
1499.7	653.718
1503.23	688.141
1506.76	541.454
1510.29	361.363
1513.82	215.962
1517.35	107.766
1520.88	15.978
