Measurement: Raman, 514 nm, ccw, Raman Data Processed
Mineral: Xenotime-(Y)
Rruff sample: R050178
Ideal chemistry: YPO_4_
Locality: Novo Horizonte, Bahia, Brazil
Source: Marcus Origlieri
Description: Brown crystal fragments
Measured chemistry: (Y_0.74_Dy_0.09_Gd_0.06_Er_0.04_Yb_0.02_Ho_0.01_Tb_0.01_Sm_0.01_Eu_0.01_)_Σ=1.00_(P_0.97_As_0.02_Si_0.01_)_Σ=1.00_O_4_
Pin_id: M00421
Orientation: Laser parallel to a* (1 0 0). Fiducial mark perpendicular to laser is parallel to c [0 0 1]
Raman shift (cm-1)	intensity
101.036	0
105.212	83.348
109.387	2.996
113.559	66.375
117.729	126.339
121.897	124.392
126.063	135.4
130.228	124.019
134.39	133.463
138.55	199.582
142.709	230.938
146.865	307.314
151.019	282.506
155.171	237.188
159.322	216.271
163.47	115.255
167.617	74.985
171.761	25.401
175.904	7.582
180.044	31.396
184.183	64.441
188.319	45.002
192.454	49.339
196.586	50.722
200.717	30.412
204.846	11.414
208.972	64.618
213.097	79.137
217.22	214.976
221.341	420.033
225.46	847.07
229.577	1528.91
233.692	1841.86
237.805	1259.46
241.916	670.868
246.025	560.089
250.132	634.131
254.237	605.002
258.34	577.71
262.442	777.257
266.541	968.282
270.639	1211.63
274.734	1688.04
278.828	2886.6
282.919	3949.86
287.009	3477.41
291.097	2391.02
295.183	1753.6
299.266	1352.69
303.348	908.336
307.428	751.573
311.507	724.046
315.583	887.035
319.657	1031.58
323.729	1430.65
327.8	2365.39
331.868	3713.56
335.935	5941.13
339.999	8653.13
344.062	9918.13
348.123	8200.99
352.182	6015.55
356.239	4458.85
360.294	3597.78
364.347	2892.94
368.398	2414.86
372.448	2284.54
376.495	2425.81
380.54	2565.67
384.584	3147.12
388.626	4564.17
392.666	6181.84
396.704	6418.12
400.74	5082.02
404.774	3755.53
408.806	2721.65
412.836	2048.36
416.865	1477.65
420.891	1280.53
424.916	1185.98
428.939	1200.97
432.959	1212.43
436.978	1432.39
440.996	1974.86
445.011	2838.85
449.024	3776.39
453.036	4768.5
457.045	4922.16
461.053	4449.41
465.059	3475.17
469.063	2613.02
473.065	2233.1
477.065	2214.37
481.063	2465.1
485.06	2955.3
489.054	3357.5
493.047	2865.57
497.038	1929.17
501.027	1130.97
505.014	651.341
508.999	413.218
512.982	306.032
516.964	233.772
520.944	172.192
524.921	167.304
528.897	248.015
532.871	360.716
536.844	372.056
540.814	412.082
544.783	461.74
548.749	547.132
552.714	570.036
556.677	536.37
560.638	614.234
564.597	744.06
568.555	834.495
572.511	839.026
576.464	837.914
580.416	988.574
584.366	1062.92
588.315	755.08
592.261	464.61
596.206	338.568
600.148	331.766
604.089	285.13
608.028	257.231
611.965	133.64
615.901	53.191
619.834	87.048
623.766	16.049
627.696	32.308
631.624	127.865
635.551	119.985
639.475	96.552
643.398	29.032
647.318	114.149
651.237	78.975
655.155	28.317
659.07	24.189
662.984	43.854
666.895	40.506
670.805	42.863
674.713	76.994
678.62	144.269
682.524	143.982
686.427	114.593
690.328	149.943
694.227	155.136
698.124	204.154
702.02	202.084
705.913	160.502
709.805	188.677
713.695	187.767
717.584	234.602
721.47	220.154
725.355	209.385
729.238	205.266
733.119	215.765
736.998	273.846
740.876	213.481
744.752	239.626
748.626	173.253
752.498	227.293
756.368	218.746
760.237	226.56
764.104	220.695
767.969	213.218
771.832	228.271
775.693	305.294
779.553	315.83
783.411	403.695
787.267	393.412
791.122	435.298
794.974	463.63
798.825	561.062
802.674	580.865
806.522	533.811
810.367	576.571
814.211	658.695
818.053	675.836
821.893	706.507
825.732	769.55
829.568	724.631
833.403	739.577
837.236	736.123
841.068	736.003
844.898	694.291
848.726	696.927
852.552	705.19
856.376	742.791
860.199	909.727
864.02	1047.73
867.839	1102.46
871.656	1168.14
875.472	1104.88
879.286	1059.23
883.098	1093.78
886.909	1134.38
890.717	1104.89
894.524	900.03
898.33	806.364
902.133	703.216
905.935	662.212
909.735	718.082
913.533	838.329
917.33	486.854
921.124	170.294
924.918	10.987
928.709	9.029
932.499	93.722
936.286	171.562
940.073	232.254
943.857	329.806
947.64	215.718
951.421	144.81
955.2	138.645
958.978	226.146
962.753	267.824
966.527	399.869
970.3	456.53
974.071	356.235
977.84	212.837
981.607	77.624
985.372	246.793
989.136	510.364
992.898	1493.98
996.659	4686.9
1000.42	17130.9
1004.17	10376.1
1007.93	4696.05
1011.68	5331.92
1015.43	6989.7
1019.18	6768.6
1022.93	5447.92
1026.68	4637.75
1030.42	4078.16
1034.17	4359.23
1037.91	5721.04
1041.65	9353.67
1045.39	14657.2
1049.12	17191.7
1052.86	14417.3
1056.59	11954
1060.33	15351.9
1064.06	30851.1
1067.78	49391.8
1071.51	36824
1075.23	18589.5
1078.96	9231.73
1082.68	4841.11
1086.4	2607.06
1090.12	1818.75
1093.83	1959.19
1097.55	3440.71
1101.26	4739.63
1104.97	4705.87
1108.68	5542.52
1112.39	9169.16
1116.1	15082.8
1119.8	19904.6
1123.5	18243.4
1127.2	13878
1130.9	11406.3
1134.6	10455.8
1138.3	10872.4
1141.99	12642.2
1145.69	16485.4
1149.38	22942.2
1153.07	33522.4
1156.76	44136.2
1160.44	48293.5
1164.13	44364.3
1167.81	33418.6
1171.49	24176.4
1175.17	18457.7
1178.85	14952.5
1182.52	11750.8
1186.2	8732.71
1189.87	5998.13
1193.54	4067.09
1197.21	2589.58
1200.88	2145.59
1204.55	2705.11
1208.21	3818.11
1211.88	4914.6
1215.54	5244.55
1219.2	4938
1222.86	4605.16
1226.51	5166.27
1230.17	6982
1233.82	10414.7
1237.47	14892.3
1241.12	19784.9
1244.77	22955.1
1248.42	23534.7
1252.06	21379.3
1255.71	18209.4
1259.35	15037.3
1262.99	12201.6
1266.63	9582.5
1270.26	8157.92
1273.9	7289.58
1277.53	7427.93
1281.16	8309.42
1284.8	9031.12
1288.42	10691.8
1292.05	12739
1295.68	13908.7
1299.3	15598.4
1302.92	17728.6
1306.55	19536.6
1310.16	18931
1313.78	16973.6
1317.4	14380.3
1321.01	11646.6
1324.62	9533.55
1328.24	8074.89
1331.85	6976.19
1335.45	6639.04
1339.06	6072.34
1342.66	5105.37
1346.27	4089.99
1349.87	3063.2
1353.47	2257.33
1357.07	1417.96
1360.66	1124.1
1364.26	614.224
1367.85	502.486
1371.44	392.958
1375.04	111.024
1378.62	154.445
1382.21	142.09
1385.8	0.614
1389.38	165.706
1392.96	310.289
1396.54	403.418
1400.12	439.994
1403.7	432.994
1407.28	260.577
1410.85	215.241
1414.42	12.599
1417.99	184.619
1421.56	224.927
1425.13	138.557
1428.7	110.5
1432.26	10.181
1435.83	71.259
1439.39	81.466
1442.95	26.553
1446.51	83.29
1450.06	267.331
1453.62	369.616
1457.17	453.733
1460.73	473.295
1464.28	498.688
1467.83	430.7
1471.37	379.246
1474.92	417.176
1478.46	480.451
1482.01	519.245
1485.55	470.447
1489.09	526.265
1492.63	512.633
1496.16	511.756
1499.7	485.032
1503.23	441.209
1506.76	415.575
1510.29	257.298
1513.82	181.801
1517.35	83.322
1520.88	6.422
