Measurement: Raman, 514 nm, ccw, Raman Data Processed
Mineral: Xenotime-(Y)
Rruff sample: R050178
Ideal chemistry: YPO_4_
Locality: Novo Horizonte, Bahia, Brazil
Source: Marcus Origlieri
Description: Brown crystal fragments
Measured chemistry: (Y_0.74_Dy_0.09_Gd_0.06_Er_0.04_Yb_0.02_Ho_0.01_Tb_0.01_Sm_0.01_Eu_0.01_)_Σ=1.00_(P_0.97_As_0.02_Si_0.01_)_Σ=1.00_O_4_
Pin_id: M00421
Orientation: Laser parallel to a* (1 0 0). Fiducial mark perpendicular to laser is parallel to c [0 0 1]
Raman shift (cm-1)	intensity
101.036	0
105.212	0.23
109.387	121.378
113.559	192.053
117.729	179.223
121.897	87.257
126.063	59.466
130.228	72.309
134.39	71.634
138.55	106.57
142.709	93.458
146.865	168.399
151.019	239.492
155.171	242.781
159.322	256.074
163.47	169.287
167.617	35.329
171.761	33.13
175.904	30.751
180.044	56.253
184.183	37.282
188.319	69.275
192.454	71.003
196.586	51.957
200.717	22.542
204.846	56.141
208.972	132.154
213.097	173.557
217.22	320.394
221.341	659.461
225.46	1194.03
229.577	2063.59
233.692	2499.16
237.805	1879.4
241.916	1445.43
246.025	1687.25
250.132	2228.87
254.237	1978.3
258.34	1806.55
262.442	1990.61
266.541	2214.45
270.639	1803.64
274.734	1663.65
278.828	2384.09
282.919	3322.53
287.009	3506.86
291.097	3007.51
295.183	3260.41
299.266	3500.9
303.348	2476.98
307.428	1474.62
311.507	1219.35
315.583	1166.4
319.657	1256.87
323.729	1433.56
327.8	2217.46
331.868	3448.12
335.935	5413.72
339.999	7962.2
344.062	9095.76
348.123	7549.09
352.182	5622.56
356.239	4581.21
360.294	4286.2
364.347	3859.42
368.398	3185.76
372.448	3016.68
376.495	2874.17
380.54	2698.24
384.584	2683.9
388.626	3490.15
392.666	4611.99
396.704	4837.44
400.74	3788.48
404.774	2661.11
408.806	1952.32
412.836	1422.11
416.865	959.463
420.891	853.367
424.916	832.822
428.939	798.797
432.959	787.188
436.978	875.021
440.996	1300.32
445.011	1836.1
449.024	2385.41
453.036	2981.26
457.045	3161.69
461.053	2803
465.059	2259.61
469.063	1698.3
473.065	1442.07
477.065	1595.95
481.063	1803.08
485.06	2115.9
489.054	2341.76
493.047	1999.72
497.038	1401.06
501.027	786.414
505.014	392.39
508.999	246.988
512.982	168.351
516.964	89.851
520.944	31.576
524.921	64.779
528.897	165.657
532.871	336.058
536.844	307.079
540.814	318.224
544.783	427.086
548.749	537.205
552.714	445.072
556.677	390.101
560.638	409.58
564.597	555.502
568.555	602.264
572.511	622.192
576.464	679.294
580.416	1135.01
584.366	1287.75
588.315	684.149
592.261	343.589
596.206	277.769
600.148	197.334
604.089	178.891
608.028	116.606
611.965	20.263
615.901	8.079
619.834	18.631
623.766	8.583
627.696	67.007
631.624	131.203
635.551	149.154
639.475	72.292
643.398	32.525
647.318	46.118
651.237	35.804
655.155	47.352
659.07	287.666
662.984	341.484
666.895	123.518
670.805	39.024
674.713	102.396
678.62	179.548
682.524	174.088
686.427	179.836
690.328	187.44
694.227	209.816
698.124	253.79
702.02	260.578
705.913	257.314
709.805	266.848
713.695	320.859
717.584	307.121
721.47	349.888
725.355	344.241
729.238	340.281
733.119	327.807
736.998	371.728
740.876	420.098
744.752	381.897
748.626	321.892
752.498	360.875
756.368	386.263
760.237	400.266
764.104	405.602
767.969	324.32
771.832	341.047
775.693	394.635
779.553	464.945
783.411	512.133
787.267	488.864
791.122	526.039
794.974	564.691
798.825	679.462
802.674	672.245
806.522	722.903
810.367	708.317
814.211	753.828
818.053	818.498
821.893	863.984
825.732	855.774
829.568	846.843
833.403	799.109
837.236	797.633
841.068	831.324
844.898	808.365
848.726	774.677
852.552	713.802
856.376	769.913
860.199	879.65
864.02	1006.68
867.839	1053.77
871.656	1026.16
875.472	971.385
879.286	882.609
883.098	893.709
886.909	929.642
890.717	852.25
894.524	755.91
898.33	625.605
902.133	576.932
905.935	557.33
909.735	631.263
913.533	635.2
917.33	353.996
921.124	112.846
924.918	11.973
928.709	65.651
932.499	43.55
936.286	104.001
940.073	321.332
943.857	340.988
947.64	280.288
951.421	218.021
955.2	147.667
958.978	270.838
962.753	356.474
966.527	488.596
970.3	575.444
974.071	325.169
977.84	192.077
981.607	10.351
985.372	176.683
989.136	509.142
992.898	1291.87
996.659	3913.35
1000.42	13775.7
1004.17	10378.6
1007.93	6966.33
1011.68	10048.8
1015.43	13645.8
1019.18	12746.6
1022.93	9438.22
1026.68	7490.45
1030.42	5373.27
1034.17	4376.74
1037.91	4910.99
1041.65	7556.23
1045.39	11622.4
1049.12	13918.9
1052.86	12795.2
1056.59	13671.7
1060.33	18329.9
1064.06	26600.4
1067.78	39649.4
1071.51	30803.1
1075.23	16543.2
1078.96	8686.42
1082.68	4561.98
1086.4	2747.25
1090.12	2108.25
1093.83	3208.57
1097.55	6264.72
1101.26	8598.54
1104.97	7700.92
1108.68	8519.59
1112.39	13034.1
1116.1	21118.6
1119.8	27969.6
1123.5	24833.1
1127.2	18470.3
1130.9	14240.9
1134.6	11576.4
1138.3	11102.2
1141.99	11931.8
1145.69	15115.3
1149.38	20882.6
1153.07	30714
1156.76	40539.4
1160.44	44948.8
1164.13	41222.2
1167.81	31049.6
1171.49	22181
1175.17	16356.3
1178.85	12885.6
1182.52	9968.89
1186.2	7466.15
1189.87	5357.41
1193.54	3792.65
1197.21	2851.87
1200.88	2995.1
1204.55	4112.34
1208.21	6443.6
1211.88	8528.82
1215.54	8848.02
1219.2	7861.32
1222.86	7018.92
1226.51	7031.07
1230.17	8769.85
1233.82	12467.8
1237.47	17320.4
1241.12	22807.9
1244.77	26415.9
1248.42	27657.5
1252.06	26343.4
1255.71	23338.1
1259.35	19577.3
1262.99	15924.5
1266.63	12733.8
1270.26	10746.1
1273.9	9818.2
1277.53	9784.08
1281.16	10655.5
1284.8	11451.4
1288.42	13042.8
1292.05	15017.6
1295.68	16020.4
1299.3	17440.5
1302.92	19107
1306.55	21003
1310.16	20410.2
1313.78	18334.2
1317.4	15572.5
1321.01	12284.5
1324.62	10176.1
1328.24	8308.72
1331.85	7293.13
1335.45	6609.24
1339.06	6286.23
1342.66	5263.4
1346.27	4272.18
1349.87	3130.67
1353.47	2388.81
1357.07	1427.43
1360.66	1215.29
1364.26	554.577
1367.85	567.309
1371.44	293.728
1375.04	53.942
1378.62	182.005
1382.21	58.168
1385.8	13.961
1389.38	185.002
1392.96	353.093
1396.54	538.322
1400.12	556.4
1403.7	506.488
1407.28	250.835
1410.85	163.893
1414.42	11.099
1417.99	264.328
1421.56	278.346
1425.13	192.099
1428.7	206.752
1432.26	15.444
1435.83	57.577
1439.39	36.976
1442.95	26.72
1446.51	212.137
1450.06	317.197
1453.62	401.959
1457.17	575.264
1460.73	603.277
1464.28	584.857
1467.83	507.666
1471.37	547.123
1474.92	465.391
1478.46	521.978
1482.01	568.258
1485.55	484.947
1489.09	503.696
1492.63	528.05
1496.16	497.976
1499.7	577.983
1503.23	503.911
1506.76	403.45
1510.29	301.978
1513.82	221.385
1517.35	82.243
1520.88	0
