Measurement: Raman, 514 nm, ccw, Raman Data Processed
Mineral: Xenotime-(Y)
Rruff sample: R050178
Ideal chemistry: YPO_4_
Locality: Novo Horizonte, Bahia, Brazil
Source: Marcus Origlieri
Description: Brown crystal fragments
Measured chemistry: (Y_0.74_Dy_0.09_Gd_0.06_Er_0.04_Yb_0.02_Ho_0.01_Tb_0.01_Sm_0.01_Eu_0.01_)_Σ=1.00_(P_0.97_As_0.02_Si_0.01_)_Σ=1.00_O_4_
Pin_id: L00394
Orientation: Laser parallel to -c* (0 0 -1). Fiducial mark perpendicular to laser is parallel to a [1 0 0]
Raman shift (cm-1)	intensity
48.666	0
52.873	14.853
57.079	7.87
61.283	45.419
65.484	45.504
69.684	74.801
73.881	97.885
78.076	60.943
82.27	58.85
86.461	32.31
90.65	71.009
94.838	144.735
99.023	146.265
103.206	166.858
107.387	176.691
111.566	118.933
115.744	146.535
119.919	79.921
124.092	66.168
128.263	8.405
132.432	8.213
136.599	10.233
140.764	25.764
144.927	23.164
149.088	41.226
153.247	53.118
157.404	31.847
161.559	78.608
165.711	238.275
169.862	513.174
174.011	843.138
178.158	535.103
182.303	74.17
186.446	49.689
190.587	38.13
194.726	44.989
198.862	18.675
202.997	90.883
207.13	265.603
211.261	412.92
215.39	715.632
219.517	1371.4
223.642	2419.7
227.765	2988.15
231.886	2420.07
236.005	2173.72
240.122	2777.59
244.237	3681.18
248.35	3440.61
252.461	3017.44
256.57	3209.69
260.677	3205.51
264.782	2277.5
268.885	1456.41
272.986	1025.02
277.085	1078.53
281.182	1952.27
285.278	1735.39
289.371	910.276
293.462	810.997
297.552	887.152
301.639	760.65
305.724	573.993
309.808	578.583
313.889	852.183
317.969	989.146
322.046	1212.75
326.122	1989.93
330.196	3687.56
334.267	5338.62
338.337	5535.12
342.405	4790.07
346.471	4064.48
350.535	3859.15
354.597	3987.61
358.657	4190.24
362.715	3907.49
366.771	3732.25
370.825	3164.49
374.877	2301.2
378.928	1847.38
382.976	1647.91
387.023	1645.82
391.067	1669.15
395.11	1344.91
399.15	922.128
403.189	416.82
407.226	198.995
411.261	148.676
415.294	201.869
419.325	169.582
423.354	142.807
427.381	270.543
431.406	363.791
435.43	259.614
439.451	203.88
443.471	286.311
447.488	505.516
451.504	501.518
455.518	490.157
459.53	787.228
463.54	1061.21
467.548	1336.3
471.554	1620.69
475.558	2417.27
479.561	3836.69
483.561	4794.81
487.559	4061.87
491.556	2546.44
495.551	1694.57
499.544	1082.25
503.535	540.498
507.524	243.302
511.511	111.798
515.496	216.259
519.48	195.6
523.461	172.443
527.441	223.956
531.418	413.995
535.394	453.425
539.368	333.846
543.34	267.691
547.311	301.663
551.279	268.221
555.245	227.903
559.21	94.053
563.173	124.15
567.133	259.208
571.092	318.561
575.049	251.392
579.005	218.088
582.958	219.238
586.909	228.157
590.859	165.326
594.807	29.599
598.753	33.863
602.697	22.793
606.639	21.546
610.579	7.465
614.518	73.459
618.454	62.152
622.389	37.084
626.322	19.41
630.253	59.683
634.182	89.837
638.109	41.999
642.035	53.469
645.958	208.651
649.88	330.552
653.8	912.233
657.718	1693.25
661.634	609.405
665.549	251.524
669.461	167.836
673.372	134.801
677.281	182.898
681.188	329.339
685.093	293.334
688.997	306.224
692.898	250.228
696.798	352.258
700.696	432.304
704.592	448.208
708.486	449.685
712.378	397.36
716.269	503.62
720.158	622.913
724.045	662.42
727.93	608.718
731.813	631.643
735.694	677.13
739.574	775.13
743.452	785.644
747.328	776.713
751.202	703.698
755.075	666.286
758.945	732.364
762.814	712.806
766.681	721.033
770.546	694.256
774.409	638.54
778.271	696.124
782.131	786.886
785.989	839.535
789.845	778.834
793.699	810.574
797.552	916.02
801.402	1004.24
805.251	1077.39
809.098	1105.81
812.944	1066.91
816.787	1089.96
820.629	1132.73
824.469	1165.37
828.307	1154.79
832.144	1015.13
835.978	936.823
839.811	946.738
843.642	939.73
847.472	964.504
851.299	926.395
855.125	785.247
858.949	798.146
862.771	760.898
866.591	906.759
870.41	865.336
874.227	729.493
878.042	577.785
881.855	512.95
885.667	605.302
889.476	599.383
893.284	554.596
897.09	473.302
900.895	458.206
904.698	604.353
908.499	802.169
912.298	765.059
916.095	364.195
919.891	91.555
923.685	154.302
927.477	281.068
931.267	266.955
935.056	208.443
938.843	217.5
942.628	408.14
946.411	480.482
950.193	655.711
953.973	456.106
957.751	237.149
961.527	166.022
965.302	352.477
969.075	408.852
972.846	368.76
976.615	15.309
980.383	674.819
984.149	1766.64
987.913	3134.33
991.675	6028.79
995.436	19207.6
999.195	24236.6
1002.95	12664.1
1006.71	18562.2
1010.46	28902.6
1014.21	28184.1
1017.96	17618.2
1021.71	9222.06
1025.46	5595.12
1029.2	3745.99
1032.95	3216.41
1036.69	3351.05
1040.43	4506.68
1044.17	5413.27
1047.9	6528.76
1051.64	13980.2
1055.37	30884.4
1059.1	20401.4
1062.83	16980
1066.56	13893.8
1070.29	8848.77
1074.01	5036.25
1077.73	3251.34
1081.46	2803.23
1085.17	3450.03
1088.89	5665.2
1092.61	11297
1096.32	15834
1100.04	12032.7
1103.75	11924.5
1107.46	18851.6
1111.16	33488.3
1114.87	47797.3
1118.57	44527.9
1122.28	29865.6
1125.98	18484.4
1129.67	12877.4
1133.37	10754.5
1137.07	10885.9
1140.76	12801.7
1144.45	16202.1
1148.14	20997.1
1151.83	27446.8
1155.52	31771.2
1159.21	30240.4
1162.89	25044.3
1166.57	17742.9
1170.25	11886.3
1173.93	7714.61
1177.61	4797.69
1181.28	2795.64
1184.96	2068.45
1188.63	2276.09
1192.3	3648.58
1195.97	5825.93
1199.64	9278.08
1203.3	13754.9
1206.97	17026.3
1210.63	16142.3
1214.29	13352.8
1217.95	11278.4
1221.6	11789
1225.26	14235.1
1228.91	19036.4
1232.57	24597.5
1236.21	29107.9
1239.86	31954.1
1243.51	34112.4
1247.16	35776.8
1250.8	36576.6
1254.44	34735.5
1258.08	29568.3
1261.72	24514.1
1265.36	19027.4
1268.99	15216.9
1272.63	13615
1276.26	14122.1
1279.89	16033.1
1283.52	18564.4
1287.15	22010.8
1290.77	24255.2
1294.4	24854.4
1298.02	25213.2
1301.64	24883.9
1305.26	23267.1
1308.88	19774.1
1312.49	16705.3
1316.11	14393
1319.72	12545.4
1323.33	10920.1
1326.94	9374.07
1330.55	7888.32
1334.15	6495.07
1337.76	4810.77
1341.36	3688.49
1344.96	2937.33
1348.56	2644.7
1352.16	2234.03
1355.75	2074.77
1359.35	2025.11
1362.94	1394.28
1366.53	873.502
1370.12	271.934
1373.71	297.611
1377.3	358.661
1380.88	433.029
1384.46	354.105
1388.05	95.567
1391.63	70.421
1395.2	48.56
1398.78	17.263
1402.36	113.429
1405.93	187.457
1409.5	438.149
1413.07	288.923
1416.64	255.719
1420.21	83.642
1423.78	16.734
1427.34	289.214
1430.9	241.395
1434.46	430.061
1438.02	304.513
1441.58	288.106
1445.13	260.416
1448.69	234.142
1452.24	278.477
1455.79	307.94
1459.34	485.201
1462.89	629.285
1466.44	817.867
1469.98	984.206
1473.53	973.726
1477.07	979.625
1480.61	910.103
1484.14	791.833
1487.68	1169.17
1491.22	510.091
1494.75	387.417
1498.28	369.795
1501.81	424.445
1505.34	441.416
1508.87	438.673
1512.4	453.233
1515.92	461.969
1519.44	375.81
1522.96	0
