Measurement: Raman, 514 nm, ccw, Raman Data Processed
Mineral: Xenotime-(Y)
Rruff sample: R050178
Ideal chemistry: YPO_4_
Locality: Novo Horizonte, Bahia, Brazil
Source: Marcus Origlieri
Description: Brown crystal fragments
Measured chemistry: (Y_0.74_Dy_0.09_Gd_0.06_Er_0.04_Yb_0.02_Ho_0.01_Tb_0.01_Sm_0.01_Eu_0.01_)_Σ=1.00_(P_0.97_As_0.02_Si_0.01_)_Σ=1.00_O_4_
Pin_id: L00394
Orientation: Laser parallel to -c* (0 0 -1). Fiducial mark perpendicular to laser is parallel to a [1 0 0]
Raman shift (cm-1)	intensity
48.666	0
52.873	18.256
57.079	55.033
61.283	53.924
65.484	73.843
69.684	102.091
73.881	60.41
78.076	58.171
82.27	54.522
86.461	43.948
90.65	90.715
94.838	118.98
99.023	166.896
103.206	237.62
107.387	222.579
111.566	183.813
115.744	174.024
119.919	149.161
124.092	72.403
128.263	50.07
132.432	19.242
136.599	46.525
140.764	6.166
144.927	9.175
149.088	8.772
153.247	62.117
157.404	52.234
161.559	5.868
165.711	114.163
169.862	213.676
174.011	351.331
178.158	202.047
182.303	15.26
186.446	64.756
190.587	35.142
194.726	87.993
198.862	83.683
202.997	144.811
207.13	310.452
211.261	534.686
215.39	760.744
219.517	1457.61
223.642	2466.34
227.765	3012.83
231.886	2529.13
236.005	2240.28
240.122	2736.14
244.237	3687.04
248.35	3475.06
252.461	3088.59
256.57	3198.43
260.677	3230.47
264.782	2360.89
268.885	1549.94
272.986	1114.95
277.085	1253.9
281.182	2080.81
285.278	1797.66
289.371	989.648
293.462	814.809
297.552	998.958
301.639	843.682
305.724	680.46
309.808	722.524
313.889	938.379
317.969	1107.11
322.046	1400.45
326.122	2287.72
330.196	5298.41
334.267	5957.36
338.337	5701.74
342.405	4851.57
346.471	4183.58
350.535	3869.22
354.597	4158.34
358.657	4277.03
362.715	4041.2
366.771	3804.86
370.825	3196.99
374.877	2409.61
378.928	1981.69
382.976	1801.15
387.023	1799
391.067	1772.25
395.11	1447.93
399.15	939.052
403.189	481.634
407.226	259.693
411.261	196.243
415.294	230.295
419.325	240.853
423.354	266.913
427.381	305.472
431.406	414.536
435.43	284.108
439.451	245.192
443.471	360.112
447.488	517.309
451.504	541.742
455.518	503.271
459.53	624.113
463.54	955.573
467.548	1202.89
471.554	1451.29
475.558	2040.63
479.561	3065.32
483.561	3753.92
487.559	3145.66
491.556	2035.32
495.551	1332.56
499.544	853.354
503.535	449.717
507.524	158.647
511.511	119.65
515.496	183.295
519.48	168.831
523.461	442.177
527.441	212.804
531.418	411.002
535.394	424.667
539.368	326.139
543.34	268.144
547.311	262.455
551.279	302.143
555.245	233.231
559.21	126.386
563.173	140.951
567.133	255.548
571.092	335.401
575.049	275.374
579.005	251.498
582.958	179.976
586.909	246.445
590.859	190.961
594.807	68.749
598.753	5.856
602.697	22.82
606.639	50.815
610.579	34.282
614.518	47.543
618.454	39.693
622.389	46.626
626.322	1.226
630.253	71.273
634.182	97.147
638.109	81.193
642.035	16.614
645.958	74.846
649.88	183.376
653.8	491.164
657.718	882.565
661.634	304.592
665.549	178.096
669.461	171.007
673.372	139.582
677.281	180.733
681.188	253.476
685.093	296.374
688.997	318.973
692.898	254.157
696.798	298.217
700.696	387.184
704.592	457.853
708.486	402.139
712.378	417.006
716.269	476.82
720.158	592.238
724.045	663.671
727.93	647.212
731.813	606.448
735.694	649.754
739.574	751.648
743.452	821.438
747.328	791.963
751.202	707.303
755.075	697.116
758.945	722.226
762.814	757.674
766.681	740.828
770.546	688.405
774.409	619.796
778.271	720.993
782.131	759.175
785.989	842.729
789.845	807.778
793.699	862.829
797.552	891.866
801.402	980.054
805.251	1086.03
809.098	1086.61
812.944	1113.94
816.787	1106.91
820.629	1096.77
824.469	1113.45
828.307	1219.88
832.144	1113.54
835.978	988.071
839.811	961.694
843.642	946.124
847.472	980.184
851.299	962.338
855.125	831.603
858.949	788.944
862.771	814.819
866.591	850.064
870.41	845.901
874.227	733.054
878.042	607.329
881.855	560.658
885.667	604.072
889.476	607.143
893.284	573.5
897.09	492.035
900.895	383.985
904.698	462.791
908.499	590.272
912.298	610.435
916.095	277.945
919.891	88.6
923.685	47.47
927.477	254.701
931.267	247.041
935.056	156.897
938.843	238.175
942.628	316.479
946.411	474.376
950.193	594.458
953.973	447.931
957.751	350.86
961.527	244.017
965.302	366.033
969.075	477.599
972.846	308.955
976.615	148.802
980.383	523.293
984.149	1387.56
987.913	2571.01
991.675	4961.46
995.436	15778
999.195	20386.5
1002.95	11832.8
1006.71	18538.9
1010.46	29297.7
1014.21	28506.3
1017.96	17837.4
1021.71	9288.66
1025.46	5470.29
1029.2	3650.3
1032.95	2911.27
1036.69	3083.35
1040.43	4355.55
1044.17	4927.67
1047.9	5421.06
1051.64	9905.16
1055.37	20901.9
1059.1	16025.1
1062.83	15980.1
1066.56	13534.3
1070.29	8716
1074.01	5060.78
1077.73	3202.47
1081.46	2702.47
1085.17	3443.71
1088.89	5714.57
1092.61	11391.1
1096.32	16209.6
1100.04	12389.8
1103.75	12118.1
1107.46	19154.3
1111.16	33799.6
1114.87	48401.1
1118.57	45273.4
1122.28	30426.7
1125.98	18985.3
1129.67	13325.3
1133.37	10929.4
1137.07	11267.7
1140.76	12980.4
1144.45	16707.7
1148.14	21989.5
1151.83	28606.1
1155.52	32757.4
1159.21	30993.4
1162.89	25524.2
1166.57	17969.7
1170.25	12350.2
1173.93	8025.42
1177.61	5105.52
1181.28	3110.47
1184.96	2130.29
1188.63	2414.99
1192.3	3784.59
1195.97	5959.09
1199.64	9548.49
1203.3	14072.7
1206.97	17491.5
1210.63	16775
1214.29	13713.2
1217.95	11636.5
1221.6	11844.9
1225.26	14398.5
1228.91	19247.5
1232.57	25194.6
1236.21	29889.7
1239.86	33068.8
1243.51	35046.4
1247.16	36530.2
1250.8	37114.4
1254.44	35300.5
1258.08	30482.2
1261.72	25107.7
1265.36	19515.7
1268.99	15807.8
1272.63	13996.9
1276.26	14420.2
1279.89	16368.7
1283.52	18737.8
1287.15	22393.8
1290.77	24733.5
1294.4	25578.8
1298.02	25906.5
1301.64	25649.1
1305.26	24079.7
1308.88	20366.4
1312.49	17157.7
1316.11	14792.8
1319.72	12697.3
1323.33	11000.1
1326.94	9594.44
1330.55	8068.42
1334.15	6683.69
1337.76	5120.45
1341.36	3799.44
1344.96	2928.37
1348.56	2638.03
1352.16	2397.05
1355.75	2087.55
1359.35	1998.06
1362.94	1388.45
1366.53	1018.23
1370.12	247.94
1373.71	224.209
1377.3	294.915
1380.88	385.647
1384.46	353.88
1388.05	193.03
1391.63	80.398
1395.2	29.993
1398.78	85.891
1402.36	131.159
1405.93	172.126
1409.5	326.597
1413.07	371.948
1416.64	273.27
1420.21	128.639
1423.78	42.163
1427.34	154.455
1430.9	269.372
1434.46	322.769
1438.02	288.916
1441.58	301.249
1445.13	260.297
1448.69	241.755
1452.24	261.621
1455.79	326.658
1459.34	362.186
1462.89	584.831
1466.44	732.085
1469.98	866.871
1473.53	1019.25
1477.07	980.552
1480.61	970.115
1484.14	759.667
1487.68	635.87
1491.22	566.406
1494.75	432.528
1498.28	416.625
1501.81	452.954
1505.34	408.429
1508.87	437.499
1512.4	443.108
1515.92	454.936
1519.44	326.761
1522.96	0
