Measurement: Raman, 514 nm, ccw, Raman Data Processed
Mineral: Zircon
Rruff sample: R050034
Ideal chemistry: ZrSiO_4_
Locality: Oaxaca, Mexico
Source: University of Arizona Mineral Museum
Description: Reddish brown single crystal fragments
Measured chemistry: Zr_1.00_Si_1.00_O_4_
Pin_id: M00280
Orientation: Laser parallel to -a* (-1 0 0). Fiducial mark perpendicular to laser is parallel to c [0 0 1]
Raman shift (cm-1)	intensity
120.589	0
124.77	50.287
128.949	61.261
133.126	55.959
137.301	50.475
141.473	23.998
145.644	90.554
149.812	97.878
153.979	153.182
158.143	164.368
162.305	267.208
166.465	319.088
170.623	303.842
174.778	391.578
178.932	394.374
183.083	518.28
187.233	808.216
191.38	1399.73
195.525	3391.08
199.669	4680.95
203.81	3604.98
207.949	4582.53
212.085	4159.24
216.22	5582.18
220.353	6991.36
224.483	3176.77
228.612	1253.42
232.738	645.286
236.863	318.366
240.985	235.647
245.105	59.105
249.223	23.732
253.339	10.475
257.453	41.516
261.565	9.393
265.675	28.077
269.783	6.512
273.888	27.337
277.992	7.479
282.093	21.946
286.193	51.081
290.29	44.258
294.386	75.075
298.479	130.848
302.57	179.412
306.659	255.236
310.746	374.27
314.831	493.485
318.914	698.861
322.995	857.374
327.074	1066.99
331.151	1464.69
335.226	2524.49
339.299	3451.4
343.37	6274.4
347.438	12635.5
351.505	18691.7
355.57	11937.9
359.632	5850.98
363.693	3491.1
367.751	2422.26
371.808	1788.52
375.862	1568.88
379.914	1480.35
383.965	1598.91
388.013	1607.57
392.06	1349.33
396.104	1247.18
400.146	1203.15
404.186	1366.22
408.225	1605.84
412.261	2052.34
416.295	2729.46
420.327	3875.96
424.357	6050.11
428.386	10275.3
432.412	15346.1
436.436	14355.6
440.458	8461.84
444.478	4798.33
448.496	3164.31
452.513	2173.26
456.527	1577.27
460.539	1292.36
464.549	1104.53
468.557	861.768
472.563	661.032
476.567	488.32
480.57	383.625
484.57	389.947
488.568	227.281
492.564	205.628
496.558	245.101
500.551	224.643
504.541	191.257
508.529	169.017
512.515	143.698
516.5	195.426
520.482	142.36
524.462	124.102
528.441	125.878
532.417	163.733
536.391	205.513
540.364	155.272
544.334	149.376
548.303	144.686
552.269	91.989
556.234	127.996
560.197	26.01
564.157	21.163
568.116	2.015
572.073	22.582
576.027	15.535
579.98	40.719
583.931	65.448
587.88	21.667
591.827	12.423
595.772	43.348
599.715	19.893
603.656	20.927
607.595	80.676
611.532	194.922
615.468	141.691
619.401	141.119
623.332	150.857
627.262	159.781
631.189	204.478
635.115	207.858
639.039	256.131
642.96	190.403
646.88	139.714
650.798	98.981
654.714	85.64
658.628	112.49
662.54	162.005
666.45	103.994
670.358	91.863
674.264	72.165
678.169	76.537
682.071	109.454
685.972	124.234
689.87	128.949
693.767	73.982
697.662	49.246
701.555	98.018
705.446	90.986
709.335	90.874
713.222	18.584
717.107	4.901
720.99	50.886
724.872	82.796
728.751	67.582
732.629	29.123
736.504	33.353
740.378	11.382
744.25	51.213
748.12	57.077
751.988	55.537
755.854	30.23
759.719	5.671
763.581	61.059
767.442	35.331
771.3	36.454
775.157	35.595
779.012	41.126
782.865	36.873
786.716	66.216
790.565	147.603
794.413	31.89
798.258	39.075
802.102	21.161
805.943	4.866
809.783	54.21
813.621	13.849
817.457	25.785
821.292	4.807
825.124	26.055
828.954	25.993
832.783	92.157
836.61	158.783
840.435	54.208
844.258	21.531
848.079	4.561
851.898	32.412
855.715	1.329
859.531	65.601
863.345	74.827
867.157	83.076
870.967	150.152
874.775	112.87
878.581	110.146
882.386	121.677
886.188	154.346
889.989	201.859
893.788	218.996
897.585	216.978
901.38	231.743
905.174	206.838
908.965	284.806
912.755	286.952
916.543	372.813
920.329	418.154
924.113	401.845
927.895	400.947
931.676	426.536
935.454	453.897
939.231	597.525
943.006	713.247
946.78	804.961
950.551	888.706
954.32	1023.23
958.088	1397.26
961.854	2334.32
965.618	4487.75
969.38	6410.16
973.141	4241.03
976.9	2854.93
980.656	2756.79
984.411	3300.93
988.165	4482.19
991.916	7533.52
995.665	15401.9
999.413	38878.7
1003.16	40093.4
1006.9	17091.4
1010.65	8800.23
1014.39	5144.11
1018.12	3324.28
1021.86	2357.64
1025.6	1684.4
1029.33	1329.8
1033.06	1152.11
1036.79	1000.01
1040.52	1046.19
1044.25	945.077
1047.97	945.508
1051.69	769.787
1055.41	622.999
1059.13	630.676
1062.85	604.087
1066.57	632.794
1070.28	600.352
1073.99	678.019
1077.7	725.034
1081.41	629.171
1085.12	645.8
1088.82	589.711
1092.52	550.722
1096.22	564.777
1099.92	483.084
1103.62	545.898
1107.32	512.532
1111.01	501.497
1114.7	397.304
1118.39	404.188
1122.08	267.639
1125.77	336.361
1129.45	343.084
1133.14	215.138
1136.82	181.817
1140.5	260.7
1144.18	174.807
1147.85	181.966
1151.53	111.719
1155.2	49.269
1158.87	7.763
1162.54	85.949
1166.21	59.036
1169.88	91.219
1173.54	31.756
1177.2	28.418
1180.86	29.174
1184.52	42.22
1188.18	27.94
1191.83	52.095
1195.49	27.78
1199.14	72.49
1202.79	36.273
1206.44	64.017
1210.08	6.771
1213.73	28.164
1217.37	44.781
1221.01	54.792
1224.65	50.477
1228.29	128.665
1231.93	242.458
1235.56	149.121
1239.19	123.88
1242.83	88.309
1246.46	100.601
1250.08	42.32
1253.71	107.15
1257.33	284.843
1260.96	287.695
1264.58	340.692
1268.19	301.688
1271.81	228.442
1275.43	181.867
1279.04	152.975
1282.65	83.677
1286.27	138.144
1289.87	145.422
1293.48	160.506
1297.09	121.386
1300.69	102.033
1304.29	25.316
1307.89	34.796
1311.49	9.577
1315.09	58.275
1318.68	22.467
1322.28	87.902
1325.87	105.613
1329.46	152.143
1333.05	180.093
1336.63	105.272
1340.22	70.042
1343.8	89.76
1347.38	76.134
1350.96	63.77
1354.54	132.337
1358.12	136.919
1361.69	64.448
1365.26	192.746
1368.83	108.878
1372.4	15.077
1375.97	6.351
1379.54	16.871
1383.1	25.924
1386.66	87.265
1390.23	84.957
1393.79	122.326
1397.34	138.399
1400.9	171.592
1404.45	101.748
1408.01	151.421
1411.56	109.844
1415.11	119.273
1418.66	204.394
1422.2	293.809
1425.75	192.539
1429.29	203.244
1432.83	261.55
1436.37	263.772
1439.91	342.939
1443.44	188.354
1446.98	241.095
1450.51	112.922
1454.04	130.897
1457.57	120.635
1461.1	207.804
1464.63	153.317
1468.15	108.646
1471.67	111.265
1475.19	37.731
1478.71	3.626
1482.23	96.013
1485.75	56.561
1489.26	164.029
1492.78	94.296
1496.29	45.429
1499.8	108.104
1503.31	39.244
1506.81	110.63
1510.32	153.644
1513.82	121.336
