Measurement: Raman, 514 nm, ccw, Raman Data Processed
Mineral: Zircon
Rruff sample: R050034
Ideal chemistry: ZrSiO_4_
Locality: Oaxaca, Mexico
Source: University of Arizona Mineral Museum
Description: Reddish brown single crystal fragments
Measured chemistry: Zr_1.00_Si_1.00_O_4_
Pin_id: M00272
Orientation: Laser parallel to -c* (0 0 -1). Fiducial mark perpendicular to laser is parallel to b [0 1 0]
Raman shift (cm-1)	intensity
84.264	0
88.463	38.424
92.661	70.598
96.856	129.616
101.049	196.831
105.24	293.302
109.429	361.716
113.616	458.915
117.8	378.202
121.983	386.68
126.163	354.786
130.342	299.122
134.518	323.732
138.692	300.005
142.864	309.267
147.034	326.831
151.201	237.504
155.367	287.328
159.53	264.326
163.692	298.512
167.851	282.887
172.008	232.178
176.163	308.46
180.316	256.919
184.467	265.133
188.616	352.985
192.762	531.245
196.907	779.629
201.049	1233.01
205.189	1859.27
209.328	3085.79
213.464	2338.55
217.598	1262.56
221.73	1085.79
225.86	734.209
229.988	374.818
234.113	195.61
238.237	153.582
242.359	142.732
246.478	69.057
250.595	70.291
254.711	53.942
258.824	81.025
262.935	79.875
267.044	72.312
271.151	10.791
275.256	32.505
279.359	50.911
283.46	28.08
287.559	13.029
291.656	18.799
295.75	54.409
299.843	7.924
303.933	36.649
308.022	47.712
312.108	15.017
316.193	45.768
320.275	52.655
324.355	40.644
328.434	98.73
332.51	148.913
336.584	215.192
340.656	265.571
344.726	480.024
348.794	1066.52
352.86	1749.05
356.924	1325.55
360.986	677.968
365.046	490.421
369.104	272.98
373.159	317.657
377.213	392.436
381.265	470.322
385.315	685.303
389.362	894.385
393.408	729.584
397.451	609.899
401.493	621.304
405.533	711.8
409.57	848.401
413.606	1190.63
417.639	1720.11
421.671	2580.88
425.7	4251.63
429.728	7732.17
433.753	12737.7
437.777	13851.5
441.798	9343.62
445.818	5401.24
449.835	3238.11
453.851	2229.11
457.864	1647.44
461.876	1330.47
465.885	1020.44
469.893	913.38
473.898	661.84
477.902	570.984
481.903	409.189
485.903	434.431
489.9	230.707
493.896	249.04
497.889	217.471
501.881	232.037
505.87	215.694
509.858	145.41
513.844	164.212
517.827	160.072
521.809	180.965
525.789	172.986
529.766	113.465
533.742	180.471
537.716	136.778
541.688	120.65
545.657	105.41
549.625	62.539
553.591	149.186
557.555	89.53
561.517	27.978
565.477	38.17
569.435	51.402
573.391	50.174
577.345	7.74
581.297	5.951
585.248	37.691
589.196	9.051
593.142	53.676
597.086	0.754
601.029	8.29
604.969	7.559
608.908	40.87
612.844	98.302
616.779	70.738
620.712	7.581
624.642	93.183
628.571	163.553
632.498	117.867
636.423	184.343
640.346	200.073
644.267	153.998
648.186	179.163
652.103	150.092
656.019	65.318
659.932	83.102
663.843	112.76
667.753	110.967
671.66	128.244
675.566	74.1
679.47	49.579
683.372	64.095
687.271	93.46
691.169	46.676
695.065	21.221
698.96	75.246
702.852	130.152
706.742	159.77
710.631	76.17
714.517	49.399
718.402	42.474
722.284	44.369
726.165	76.083
730.044	14.904
733.921	7.803
737.796	9.704
741.669	8.247
745.54	54.207
749.41	43.677
753.277	33.686
757.143	24.194
761.006	11.225
764.868	47.047
768.728	69.741
772.586	4.32
776.442	26.417
780.297	24.808
784.149	61.912
787.999	107.895
791.848	58.715
795.695	8.404
799.54	27.978
803.382	58.431
807.224	13.29
811.063	33.697
814.9	35.604
818.736	48.116
822.569	56.822
826.401	58.237
830.231	75.17
834.059	127.868
837.885	97.53
841.709	101.591
845.532	59.889
849.352	0.715
853.171	23.563
856.988	34.04
860.803	24.08
864.616	103.537
868.427	195.065
872.236	162.483
876.044	159.88
879.849	133.106
883.653	94.514
887.455	113.266
891.255	181.932
895.054	198.501
898.85	193.535
902.645	127.513
906.438	123.406
910.229	267.036
914.018	323.11
917.805	323.879
921.59	345.971
925.374	272.343
929.156	419.172
932.936	343.486
936.714	436.814
940.49	644.011
944.264	715.999
948.037	718.395
951.808	822.016
955.577	1017.28
959.344	1483.38
963.109	2342.54
966.872	4836.52
970.634	8280.27
974.394	5533.94
978.152	3486.04
981.908	2883.14
985.663	3135.58
989.415	4119.92
993.166	6386.37
996.915	12722.9
1000.66	32478
1004.41	43474.8
1008.15	21111.6
1011.89	9948.67
1015.63	5595.92
1019.37	3364.37
1023.11	2288.92
1026.84	1600.45
1030.57	1317.18
1034.31	1004.17
1038.03	860.011
1041.76	762.747
1045.49	578.157
1049.21	511.041
1052.93	474.008
1056.65	522.787
1060.37	489.676
1064.09	445.749
1067.8	493.67
1071.52	432.841
1075.23	422.092
1078.94	423.177
1082.64	529.525
1086.35	725.145
1090.05	679.863
1093.76	495.087
1097.46	428.989
1101.16	383.723
1104.85	415.902
1108.55	529.307
1112.24	543.577
1115.93	336.949
1119.62	251.393
1123.31	175.933
1127	147.569
1130.68	62.235
1134.37	154.114
1138.05	188.209
1141.72	374.005
1145.4	378.077
1149.08	255.855
1152.75	136.638
1156.42	37.515
1160.1	30.513
1163.76	49.516
1167.43	86.251
1171.1	101.676
1174.76	58.57
1178.42	2.792
1182.08	106.929
1185.74	2.691
1189.4	81.307
1193.05	19.595
1196.7	152.132
1200.36	53.542
1204.01	74.73
1207.65	27.821
1211.3	50.78
1214.94	10.913
1218.59	45.091
1222.23	129.431
1225.87	162.773
1229.5	160.479
1233.14	219.58
1236.77	167.681
1240.41	108.28
1244.04	16.732
1247.66	89.507
1251.29	120.994
1254.92	201.183
1258.54	363.322
1262.16	289.383
1265.78	378.817
1269.4	299.866
1273.02	252.768
1276.63	117.489
1280.25	122.944
1283.86	163.141
1287.47	142.126
1291.08	205.954
1294.68	198.51
1298.29	129.896
1301.89	108.032
1305.49	29.75
1309.09	23.219
1312.69	14.299
1316.29	108.52
1319.88	124.595
1323.47	150.113
1327.06	170.499
1330.65	140.585
1334.24	189.355
1337.83	157.271
1341.41	126.096
1344.99	253.481
1348.57	145.987
1352.15	190.15
1355.73	256.213
1359.31	293.048
1362.88	282.745
1366.45	185.297
1370.02	19.864
1373.59	15.743
1377.16	46.159
1380.73	102.402
1384.29	46.569
1387.85	68.867
1391.41	186.202
1394.97	163.278
1398.53	220.874
1402.09	199.953
1405.64	92.97
1409.19	147.403
1412.74	78.846
1416.29	56.997
1419.84	88.756
1423.38	144.234
1426.93	171.532
1430.47	199.007
1434.01	287.053
1437.55	296.038
1441.09	325.048
1444.62	349.562
1448.16	201.577
1451.69	293.871
1455.22	274.103
1458.75	293.495
1462.28	329.15
1465.8	319.68
1469.33	347.127
1472.85	402.066
1476.37	397.707
1479.89	242.07
1483.4	163.075
1486.92	137.543
1490.43	125.845
1493.95	18.11
1497.46	47.242
1500.97	24.462
1504.47	166.974
1507.98	206.729
1511.48	151.455
1514.99	203.428
