Measurement: Raman, 514 nm, ccw, Raman Data Processed
Mineral: Zircon
Rruff sample: R050034
Ideal chemistry: ZrSiO_4_
Locality: Oaxaca, Mexico
Source: University of Arizona Mineral Museum
Description: Reddish brown single crystal fragments
Measured chemistry: Zr_1.00_Si_1.00_O_4_
Pin_id: M00272
Orientation: Laser parallel to -c* (0 0 -1). Fiducial mark perpendicular to laser is parallel to b [0 1 0]
Raman shift (cm-1)	intensity
81.463	0
85.664	4.764
89.863	83.727
94.059	114.955
98.254	183.479
102.446	213.74
106.637	296.199
110.825	473.289
115.011	398.4
119.195	300.811
123.377	343.102
127.556	317.248
131.734	318.878
135.909	297.675
140.083	269.544
144.254	236.256
148.423	237.743
152.59	234.078
156.755	284.312
160.918	247.484
165.078	284.62
169.237	319.311
173.393	254.228
177.548	249.781
181.7	348.861
185.85	350.52
189.998	498.111
194.144	794.699
198.288	1228.29
202.429	2023.26
206.569	3725.39
210.707	4342.66
214.842	2251.06
218.976	1223.58
223.107	737.206
227.236	428.923
231.363	288.736
235.488	162.647
239.611	97.654
243.732	86.76
247.851	40.56
251.967	26.094
256.082	41.402
260.195	43.539
264.305	53.816
268.414	50.644
272.52	33.908
276.624	53.95
280.726	15.087
284.827	34.032
288.925	5.902
293.021	13.303
297.115	32.445
301.207	58.201
305.296	24.02
309.384	39.275
313.47	36.559
317.554	98.882
321.635	136.25
325.715	89.664
329.792	87.126
333.868	88.62
337.941	218.131
342.013	309.626
346.082	527.018
350.15	793.666
354.215	963.785
358.278	567.07
362.339	292.385
366.399	256.767
370.456	303.76
374.511	354.747
378.564	448.363
382.615	718.046
386.664	1143.8
390.711	1222.61
394.756	821.494
398.799	651.475
402.84	697.541
406.879	826.045
410.916	1037.27
414.951	1448.55
418.983	2172.06
423.014	3528.65
427.043	6182.31
431.07	10808.4
435.095	14781.6
439.118	11933.8
443.138	6905.34
447.157	3928.86
451.174	2590.61
455.189	1900.52
459.202	1469.46
463.212	1126.36
467.221	903.49
471.228	780.636
475.233	644.051
479.236	472.483
483.237	313.941
487.235	315.422
491.232	303.935
495.227	228.511
499.22	239.062
503.211	239.899
507.2	224.686
511.187	242.515
515.172	139.414
519.155	147.336
523.136	197.67
527.115	192.674
531.092	141.283
535.067	103.383
539.04	197.631
543.011	158.839
546.98	128.266
550.947	75.611
554.913	65.758
558.876	129.454
562.837	99.558
566.797	27.328
570.754	41.522
574.709	61.343
578.663	47.623
582.614	23.889
586.564	2.414
590.511	47.384
594.457	19.29
598.401	413.733
602.343	39.8
606.282	55.458
610.22	60.406
614.156	136.639
618.09	155.743
622.022	156.421
625.952	55.476
629.88	138.01
633.807	196.388
637.731	326.695
641.653	252.842
645.574	136.038
649.492	152.198
653.409	131.991
657.323	110.446
661.236	94.437
665.147	93.22
669.056	87.377
672.963	101.811
676.868	125.186
680.771	51.395
684.672	18.493
688.571	50.468
692.468	114.391
696.364	66.938
700.257	40.656
704.149	49.585
708.038	8.92
711.926	115.088
715.812	134.079
719.696	15.885
723.578	6.179
727.458	11.71
731.336	96.975
735.213	53.034
739.087	19.865
742.96	3.429
746.83	14.581
750.699	52.787
754.566	33.001
758.431	59.021
762.294	35.886
766.155	42.375
770.014	25.166
773.872	109.583
777.727	52.806
781.581	14.861
785.433	28.795
789.282	85.638
793.13	176.393
796.977	172.061
800.821	74.643
804.663	38.897
808.504	72.611
812.342	4.437
816.179	82.32
820.014	13.913
823.847	32.31
827.678	5.137
831.507	33.518
835.334	147.396
839.16	182.1
842.983	87.139
846.805	56.824
850.625	47.095
854.443	72.433
858.259	67.97
862.074	128.401
865.886	119.185
869.697	53.231
873.506	68.046
877.313	133.592
881.118	204.517
884.921	176.159
888.722	113.474
892.522	93.467
896.319	98.797
900.115	210.544
903.909	271.73
907.701	323.101
911.492	209.064
915.28	265.229
919.067	291.655
922.852	409.838
926.635	439.833
930.416	476.178
934.195	465.992
937.973	505.576
941.748	605.294
945.522	773.993
949.294	1000.83
953.064	1213.61
956.832	1338.65
960.599	1861.76
964.364	3279.93
968.127	7570.96
971.888	7299.21
975.647	4564.88
979.404	3443.2
983.16	3246.74
986.914	4180.38
990.666	6421.12
994.416	11981
998.164	28966
1001.91	61633.9
1005.65	38644.1
1009.4	16594
1013.14	8524.45
1016.88	5161.08
1020.62	3482.92
1024.35	2476.94
1028.09	1831.85
1031.82	1250.48
1035.55	1043.52
1039.28	859.588
1043	812.115
1046.73	865.084
1050.45	737.793
1054.17	601.563
1057.89	419.7
1061.61	372.339
1065.33	543.01
1069.04	472.81
1072.75	540.833
1076.46	540.86
1080.17	578.039
1083.88	524.39
1087.59	508.656
1091.29	455.417
1094.99	396.3
1098.69	478.17
1102.39	499.229
1106.09	557.192
1109.78	413.48
1113.47	247.705
1117.16	159.021
1120.85	212.41
1124.54	217.913
1128.23	211.477
1131.91	153.076
1135.59	106.706
1139.27	180.473
1142.95	194.413
1146.63	213.458
1150.3	229.573
1153.98	169.477
1157.65	146.31
1161.32	30.486
1164.99	37.684
1168.65	49.544
1172.32	37.354
1175.98	57.492
1179.64	89.26
1183.3	113.141
1186.96	95.499
1190.62	40.275
1194.27	67.386
1197.92	81.556
1201.57	44.852
1205.22	146.812
1208.87	153.333
1212.51	190.727
1216.16	238.357
1219.8	201.642
1223.44	54.901
1227.08	50.646
1230.72	2.914
1234.35	114.133
1237.98	155.772
1241.62	276.853
1245.25	252.491
1248.87	220.733
1252.5	174.44
1256.12	156.83
1259.75	179.922
1263.37	236.531
1266.99	336.683
1270.61	302.518
1274.22	299.961
1277.84	245.321
1281.45	181.235
1285.06	84.896
1288.67	77.606
1292.28	22.459
1295.88	128.672
1299.49	122.888
1303.09	168.639
1306.69	192.934
1310.29	182.868
1313.89	49.445
1317.48	14.209
1321.08	40.143
1324.67	31.751
1328.26	60.152
1331.85	129.947
1335.44	290.194
1339.02	268.803
1342.61	369.714
1346.19	263.015
1349.77	225.171
1353.35	112.849
1356.92	40.445
1360.5	122.27
1364.07	35.425
1367.64	86.505
1371.21	106.54
1374.78	68.384
1378.35	185.702
1381.91	219.273
1385.48	56.892
1389.04	76.429
1392.6	28.302
1396.16	19.716
1399.71	52.357
1403.27	156.186
1406.82	241.593
1410.38	242.172
1413.92	303.664
1417.47	237.283
1421.02	221.361
1424.57	122.308
1428.11	79.093
1431.65	46.652
1435.19	142.228
1438.73	105.366
1442.27	241.966
1445.8	268.305
1449.33	476.543
1452.87	507.736
1456.4	519.337
1459.92	434.729
1463.45	347.155
1466.98	214.925
1470.5	162.4
1474.02	109.403
1477.54	107.771
1481.06	105.72
1484.58	125.705
1488.09	221.944
1491.61	271.005
1495.12	281.883
1498.63	283.859
1502.14	240.669
1505.64	131.994
1509.15	70.537
1512.65	0.682
