Measurement: Raman, 514 nm, ccw, Raman Data Processed
Mineral: Zircon
Rruff sample: R050034
Ideal chemistry: ZrSiO_4_
Locality: Oaxaca, Mexico
Source: University of Arizona Mineral Museum
Description: Reddish brown single crystal fragments
Measured chemistry: Zr_1.00_Si_1.00_O_4_
Pin_id: M00280
Orientation: Laser parallel to -a* (-1 0 0). Fiducial mark perpendicular to laser is parallel to c [0 0 1]
Raman shift (cm-1)	intensity
121.983	0
126.163	4.814
130.342	34.477
134.518	161.229
138.692	131.411
142.864	89.833
147.034	236.99
151.201	334.936
155.367	304.133
159.53	314.986
163.692	270.466
167.851	317.611
172.008	301.542
176.163	329.132
180.316	220.127
184.467	185.496
188.616	386.269
192.762	801.208
196.907	1329.41
201.049	920.57
205.189	579.521
209.328	618.926
213.464	976.851
217.598	1764.27
221.73	1720.12
225.86	656.353
229.988	274.891
234.113	117.697
238.237	114.734
242.359	4.922
246.478	63.201
250.595	52.581
254.711	57.922
258.824	111.296
262.935	5.533
267.044	22.307
271.151	59.981
275.256	60.777
279.359	87.333
283.46	179.56
287.559	89.738
291.656	172.919
295.75	300.161
299.843	383.656
303.933	484.253
308.022	789.878
312.108	933.476
316.193	1173.04
320.275	1052.55
324.355	1168.92
328.434	1404.12
332.51	1422.19
336.584	1708.2
340.656	2443.17
344.726	3773.13
348.794	6229.01
352.86	6844.46
356.924	4569.19
360.986	3343.56
365.046	2802.9
369.104	2552.39
373.159	2533.06
377.213	2708.89
381.265	2705.9
385.315	2859.76
389.362	3017.4
393.408	3332.88
397.451	3558.51
401.493	4020.69
405.533	4688.19
409.57	5783.25
413.606	7153.74
417.639	9268.11
421.671	13689.2
425.7	21739.4
429.728	34762.4
433.753	42733.2
437.777	31838.8
441.798	17756.9
445.818	10150.7
449.835	6349.1
453.851	4377.17
457.864	3566.39
461.876	2814.74
465.885	2031.2
469.893	1655.76
473.898	1340.4
477.902	1190.12
481.903	983.922
485.903	727.806
489.9	656.997
493.896	709.102
497.889	641.407
501.881	590.033
505.87	603.06
509.858	642.144
513.844	598.35
517.827	596.759
521.809	456.531
525.789	503.751
529.766	464.681
533.742	389.683
537.716	279.597
541.688	300.839
545.657	408.017
549.625	402.523
553.591	252.311
557.555	82.489
561.517	64.909
565.477	166.244
569.435	182.024
573.391	3.871
577.345	38.005
581.297	26.709
585.248	127.458
589.196	39.542
593.142	76.106
597.086	18.221
601.029	123.844
604.969	108.406
608.908	99.296
612.844	29.566
616.779	113.358
620.712	228.751
624.642	255.51
628.571	124.926
632.498	82.467
636.423	144.967
640.346	276.459
644.267	210.422
648.186	146.489
652.103	96.953
656.019	136.296
659.932	327.415
663.843	204.163
667.753	188.1
671.66	99.946
675.566	143.594
679.47	227.538
683.372	168.781
687.271	98.988
691.169	33.857
695.065	135.525
698.96	153.616
702.852	211.113
706.742	101.861
710.631	57.603
714.517	116.814
718.402	261.069
722.284	134.979
726.165	32.323
730.044	35.74
733.921	158.656
737.796	228.972
741.669	67.813
745.54	44.474
749.41	35.411
753.277	92.207
757.143	155.874
761.006	181.324
764.868	155.034
768.728	52.053
772.586	20.5
776.442	177.739
780.297	219.736
784.149	220.472
787.999	180.976
791.848	105.255
795.695	57.308
799.54	153.11
803.382	173.441
807.224	41.342
811.063	124.671
814.9	62.683
818.736	69.678
822.569	173.741
826.401	69.39
830.231	56.321
834.059	71.378
837.885	132.529
841.709	105.7
845.532	238.355
849.352	9.064
853.171	36.531
856.988	69.89
860.803	214.658
864.616	301.031
868.427	291.32
872.236	98.176
876.044	234.738
879.849	233.835
883.653	319.039
887.455	472.854
891.255	472.319
895.054	359.37
898.85	345.335
902.645	365.279
906.438	437
910.229	627.374
914.018	571.91
917.805	423.826
921.59	461.093
925.374	421.741
929.156	621.145
932.936	715.715
936.714	505.5
940.49	431.036
944.264	380.242
948.037	340.384
951.808	452.539
955.577	616.111
959.344	680.789
963.109	558.609
966.872	993.656
970.634	1354.13
974.394	868.499
978.152	784.084
981.908	574.678
985.663	372.682
989.415	193.07
993.166	206.97
996.915	507.341
1000.66	744.406
1004.41	594.526
1008.15	699.285
1011.89	524.391
1015.63	459.121
1019.37	474.662
1023.11	789.768
1026.84	1005.68
1030.57	1131.67
1034.31	1046.17
1038.03	903.012
1041.76	701.595
1045.49	716.435
1049.21	829.787
1052.93	826.598
1056.65	979.979
1060.37	650.08
1064.09	776.221
1067.8	950.085
1071.52	788.126
1075.23	890.668
1078.94	823.562
1082.64	795.62
1086.35	892.324
1090.05	764.398
1093.76	975.942
1097.46	960.967
1101.16	1030.24
1104.85	655.14
1108.55	950.173
1112.24	693.781
1115.93	536.664
1119.62	770.257
1123.31	755.978
1127	750.52
1130.68	685.48
1134.37	669.895
1138.05	609.78
1141.72	384.604
1145.4	339.603
1149.08	357.779
1152.75	344.013
1156.42	401.957
1160.1	70.541
1163.76	319.43
1167.43	220.262
1171.1	74.211
1174.76	263.133
1178.42	107.029
1182.08	69.719
1185.74	13.472
1189.4	139.866
1193.05	199.818
1196.7	177.861
1200.36	15.029
1204.01	45.837
1207.65	62.333
1211.3	208.32
1214.94	304.346
1218.59	351.525
1222.23	547.529
1225.87	353.986
1229.5	182.649
1233.14	108.441
1236.77	65.489
1240.41	73.194
1244.04	136.851
1247.66	420.567
1251.29	594.021
1254.92	537.503
1258.54	500.51
1262.16	393.309
1265.78	376.392
1269.4	418.613
1273.02	320.366
1276.63	311.612
1280.25	502.326
1283.86	472.452
1287.47	322.176
1291.08	361.571
1294.68	200.603
1298.29	60.91
1301.89	107.109
1305.49	54.287
1309.09	240.812
1312.69	306.526
1316.29	411.914
1319.88	336.855
1323.47	175.78
1327.06	16.688
1330.65	87.327
1334.24	2.06
1337.83	47.17
1341.41	281.887
1344.99	465.653
1348.57	456.333
1352.15	337.143
1355.73	368.221
1359.31	188.635
1362.88	158.96
1366.45	9.573
1370.02	150.317
1373.59	127.788
1377.16	64.472
1380.73	380.371
1384.29	645.586
1387.85	471.228
1391.41	487.341
1394.97	493.039
1398.53	308.348
1402.09	251.123
1405.64	111.51
1409.19	760.805
1412.74	472.712
1416.29	491.565
1419.84	675.313
1423.38	674.715
1426.93	936.099
1430.47	447.099
1434.01	683.765
1437.55	321.459
1441.09	402.885
1444.62	383.611
1448.16	683.083
1451.69	524.938
1455.22	402.823
1458.75	432.104
1462.28	207.772
1465.8	117.626
1469.33	448.101
1472.85	337.718
1476.37	709.649
1479.89	492.064
1483.4	48.987
1486.92	296.383
1490.43	308.594
1493.95	491.327
1497.46	252.55
1500.97	654.793
1504.47	607.074
1507.98	867.497
1511.48	711.839
1514.99	421.321
