Measurement: Raman, 514 nm, ccw, Raman Data Processed
Mineral: Zircon
Rruff sample: R050034
Ideal chemistry: ZrSiO_4_
Locality: Oaxaca, Mexico
Source: University of Arizona Mineral Museum
Description: Reddish brown single crystal fragments
Measured chemistry: Zr_1.00_Si_1.00_O_4_
Pin_id: M00280
Orientation: Laser parallel to -a* (-1 0 0). Fiducial mark perpendicular to laser is parallel to c [0 0 1]
Raman shift (cm-1)	intensity
116.406	0
120.589	0.167
124.77	0.976
128.949	21.269
133.126	60.962
137.301	69.276
141.473	52.959
145.644	100.459
149.812	93.374
153.979	147.062
158.143	116.822
162.305	178.037
166.465	163.256
170.623	198.168
174.778	165.877
178.932	217.452
183.083	247.946
187.233	342.697
191.38	523.583
195.525	907.571
199.669	1620.06
203.81	2972.35
207.949	4467.18
212.085	2686.34
216.22	1317.95
220.353	843.676
224.483	485.523
228.612	319.483
232.738	179.55
236.863	90.722
240.985	117.988
245.105	85.34
249.223	28.775
253.339	22.295
257.453	12.097
261.565	12.4
265.675	31.607
269.783	14.285
273.888	7.743
277.992	0.729
282.093	17.193
286.193	32.315
290.29	12.456
294.386	30.589
298.479	2.476
302.57	28.648
306.659	16.909
310.746	52.25
314.831	48.663
318.914	117.141
322.995	126.669
327.074	119.239
331.151	140.849
335.226	327.504
339.299	248.208
343.37	328.967
347.438	523.782
351.505	757.636
355.57	585.466
359.632	368.284
363.693	311.133
367.751	303.998
371.808	358.879
375.862	411.81
379.914	621.818
383.965	1002.9
388.013	1178.06
392.06	911.292
396.104	736.605
400.146	719.009
404.186	843.489
408.225	991.062
412.261	1388.27
416.295	1947.99
420.327	2944.51
424.357	4721.85
428.386	8378.22
432.412	13154.4
436.436	13238.8
440.458	8149
444.478	4637.56
448.496	3041.83
452.513	2152.99
456.527	1580.74
460.539	1277.85
464.549	1057.21
468.557	920.016
472.563	688.879
476.567	571.793
480.57	435.757
484.57	357.768
488.568	287.827
492.564	247.936
496.558	226.196
500.551	219.611
504.541	231.156
508.529	230.775
512.515	184.438
516.5	184.188
520.482	141.987
524.462	168.823
528.441	112.694
532.417	129.6
536.391	163.749
540.364	141.743
544.334	113.946
548.303	135.237
552.269	92.822
556.234	58.058
560.197	55.454
564.157	32.664
568.116	45.338
572.073	17.78
576.027	18.02
579.98	20.426
583.931	19.638
587.88	15.637
591.827	22.401
595.772	2.875
599.715	23.761
603.656	43.014
607.595	63.872
611.532	129.483
615.468	85.432
619.401	103.702
623.332	78.576
627.262	147.998
631.189	118.111
635.115	218.197
639.039	277.252
642.96	166.275
646.88	117.266
650.798	140.176
654.714	100.823
658.628	68.229
662.54	110.571
666.45	152.388
670.358	83.529
674.264	62.34
678.169	35.941
682.071	25.481
685.972	42.959
689.87	67.375
693.767	35.384
697.662	30.102
701.555	15.313
705.446	38.448
709.335	69.505
713.222	4.531
717.107	19.318
720.99	30.076
724.872	41.722
728.751	49.725
732.629	6.802
736.504	27.558
740.378	15.678
744.25	4.422
748.12	9.665
751.988	4.911
755.854	21.597
759.719	15.249
763.581	22.817
767.442	34.272
771.3	16.403
775.157	1.218
779.012	10.121
782.865	28.881
786.716	85.821
790.565	136.704
794.413	80.528
798.258	36.296
802.102	1.009
805.943	28.397
809.783	24.09
813.621	20.04
817.457	5.803
821.292	21.569
825.124	4.249
828.954	73.806
832.783	97.309
836.61	99.771
840.435	55.193
844.258	1.577
848.079	29.701
851.898	65.964
855.715	95.779
859.531	143.972
863.345	67.639
867.157	93.394
870.967	160.365
874.775	131.562
878.581	130.185
882.386	100.062
886.188	107.804
889.989	168.413
893.788	174.892
897.585	222.383
901.38	233.371
905.174	231.482
908.965	253.736
912.755	340.108
916.543	381.076
920.329	399.25
924.113	385.378
927.895	432.888
931.676	485.293
935.454	523.932
939.231	667.646
943.006	792.395
946.78	902.182
950.551	965.008
954.32	1207.54
958.088	1573.69
961.854	2513.24
965.618	5043.02
969.38	7605.04
973.141	5050.17
976.9	3450.9
980.656	3213.04
984.411	3895.36
988.165	5292.75
991.916	8619.21
995.665	17513.7
999.413	44896.7
1003.16	48951
1006.9	20985.7
1010.65	10530.6
1014.39	6210.89
1018.12	3975.36
1021.86	2657.08
1025.6	1860.48
1029.33	1403.9
1033.06	1201.52
1036.79	941.864
1040.52	882.373
1044.25	741.329
1047.97	694.456
1051.69	656.674
1055.41	578.418
1059.13	477.726
1062.85	500.185
1066.57	435.616
1070.28	446.127
1073.99	436.883
1077.7	470.784
1081.41	572.142
1085.12	617.094
1088.82	534.128
1092.52	470.25
1096.22	400.545
1099.92	354.809
1103.62	348.111
1107.32	327.573
1111.01	245.199
1114.7	247.907
1118.39	225.719
1122.08	160.569
1125.77	92.486
1129.45	128.461
1133.14	63.463
1136.82	195.527
1140.5	252.111
1144.18	224.351
1147.85	173.792
1151.53	79.546
1155.2	40.116
1158.87	13.729
1162.54	1.178
1166.21	1.513
1169.88	49.241
1173.54	28.38
1177.2	30.879
1180.86	26.023
1184.52	47.485
1188.18	54.138
1191.83	36.383
1195.49	43.945
1199.14	32.403
1202.79	63.562
1206.44	5.709
1210.08	22.239
1213.73	30.379
1217.37	18.652
1221.01	3.095
1224.65	29.735
1228.29	121.609
1231.93	128.943
1235.56	57.017
1239.19	81.365
1242.83	53.835
1246.46	62.807
1250.08	48.65
1253.71	50.381
1257.33	148.989
1260.96	206.687
1264.58	204.129
1268.19	144.363
1271.81	152.456
1275.43	123.377
1279.04	69.095
1282.65	20.682
1286.27	106.188
1289.87	64.58
1293.48	110.891
1297.09	96.112
1300.69	76.182
1304.29	16.282
1307.89	2.766
1311.49	29.84
1315.09	17.226
1318.68	11.659
1322.28	21.468
1325.87	106.79
1329.46	109.183
1333.05	77.313
1336.63	93.507
1340.22	51.901
1343.8	107.335
1347.38	53.628
1350.96	3.29
1354.54	41.885
1358.12	89.472
1361.69	108.981
1365.26	100.249
1368.83	83.791
1372.4	71.078
1375.97	14.46
1379.54	47.969
1383.1	15.572
1386.66	30.722
1390.23	43.858
1393.79	67.891
1397.34	89.772
1400.9	113.465
1404.45	115.18
1408.01	70.365
1411.56	88.387
1415.11	78.62
1418.66	83.061
1422.2	48.516
1425.75	48.602
1429.29	110.6
1432.83	172.016
1436.37	208.69
1439.91	244.797
1443.44	288.693
1446.98	295.553
1450.51	316.929
1454.04	314.957
1457.57	331.849
1461.1	383.163
1464.63	294.701
1468.15	286.586
1471.67	276.015
1475.19	279.076
1478.71	227.504
1482.23	140.997
1485.75	139.303
1489.26	90.435
1492.78	29.304
1496.29	96.039
1499.8	16.204
1503.31	61.578
1506.81	103.796
1510.32	102.743
1513.82	166.475
1517.32	0
