Measurement: Raman, 514 nm, ccw, Raman Data Processed
Mineral: Zircon
Rruff sample: R050034
Ideal chemistry: ZrSiO_4_
Locality: Oaxaca, Mexico
Source: University of Arizona Mineral Museum
Description: Reddish brown single crystal fragments
Measured chemistry: Zr_1.00_Si_1.00_O_4_
Pin_id: M00272
Orientation: Laser parallel to -c* (0 0 -1). Fiducial mark perpendicular to laser is parallel to b [0 1 0]
Raman shift (cm-1)	intensity
82.863	0
87.064	4.829
91.262	27.364
95.458	89.448
99.652	152.25
103.843	217.588
108.033	247.975
112.22	364.806
116.406	332.558
120.589	296.588
124.77	264.515
128.949	273.206
133.126	282.776
137.301	266.926
141.473	256.944
145.644	279.905
149.812	220.775
153.979	241.604
158.143	279.425
162.305	264.263
166.465	269.133
170.623	308.136
174.778	278.236
178.932	277.31
183.083	328.22
187.233	361.67
191.38	524.672
195.525	791.716
199.669	1314.32
203.81	2025.56
207.949	3395.94
212.085	4025.47
216.22	2350.13
220.353	1404.91
224.483	1003.79
228.612	556.779
232.738	382.865
236.863	213.051
240.985	138.338
245.105	125.725
249.223	81.769
253.339	31.156
257.453	13.423
261.565	16.455
265.675	31.668
269.783	2.143
273.888	18.155
277.992	16.301
282.093	4.31
286.193	27.227
290.29	27.085
294.386	9.897
298.479	10.646
302.57	36.347
306.659	16.955
310.746	32.3
314.831	71.691
318.914	65.133
322.995	108.628
327.074	137.176
331.151	172.776
335.226	197.424
339.299	257.109
343.37	462.826
347.438	791.54
351.505	1513.18
355.57	1669.78
359.632	1026.35
363.693	525.971
367.751	381.667
371.808	392.429
375.862	423.262
379.914	491.164
383.965	705.696
388.013	1023.19
392.06	1078.3
396.104	823.467
400.146	630.711
404.186	702.035
408.225	772.423
412.261	1026.88
416.295	1361.42
420.327	2035.72
424.357	3260.31
428.386	5569.09
432.412	9658.25
436.436	13695.2
440.458	11720.8
444.478	6836.47
448.496	3946.25
452.513	2538.56
456.527	1838.11
460.539	1456.63
464.549	1143.31
468.557	888.235
472.563	769.735
476.567	601.062
480.57	474.7
484.57	349.363
488.568	330.048
492.564	243.755
496.558	272.499
500.551	199.305
504.541	210.204
508.529	209.165
512.515	170.202
516.5	196.258
520.482	181.352
524.462	149.775
528.441	172.93
532.417	144.059
536.391	114.081
540.364	136.894
544.334	119.533
548.303	148.763
552.269	112.43
556.234	95.407
560.197	48.614
564.157	48.755
568.116	44.274
572.073	26.731
576.027	15.724
579.98	21.987
583.931	16.592
587.88	6.872
591.827	31.257
595.772	5.494
599.715	13.718
603.656	15.502
607.595	54.483
611.532	58.301
615.468	120.293
619.401	123.996
623.332	114.422
627.262	114.772
631.189	108.387
635.115	168.947
639.039	260.335
642.96	217.656
646.88	162.909
650.798	100.165
654.714	115.152
658.628	140.742
662.54	110.508
666.45	73.071
670.358	55.146
674.264	83.854
678.169	63.05
682.071	40.971
685.972	40.371
689.87	7.679
693.767	51.873
697.662	49.963
701.555	39.928
705.446	24.791
709.335	36.541
713.222	35.183
717.107	12.681
720.99	47.043
724.872	26.281
728.751	0.594
732.629	19.389
736.504	36.897
740.378	31.563
744.25	12.087
748.12	6.649
751.988	14.31
755.854	5.288
759.719	0.345
763.581	26.421
767.442	67.963
771.3	14.584
775.157	2.354
779.012	8.658
782.865	11.799
786.716	14.743
790.565	50.613
794.413	82.412
798.258	105.143
802.102	61.808
805.943	14.593
809.783	27.116
813.621	36.814
817.457	13.295
821.292	9.237
825.124	19.049
828.954	11.804
832.783	71.484
836.61	150.777
840.435	167.321
844.258	85.084
848.079	18.508
851.898	7.298
855.715	0.186
859.531	51.301
863.345	121.311
867.157	110.799
870.967	111.58
874.775	78.433
878.581	107.21
882.386	120.202
886.188	108.539
889.989	149.958
893.788	112.842
897.585	140.168
901.38	189.582
905.174	209.92
908.965	199.348
912.755	299.024
916.543	288.305
920.329	322.276
924.113	334.313
927.895	387.066
931.676	408.796
935.454	458.167
939.231	488.225
943.006	534.369
946.78	679.608
950.551	821.899
954.32	1032.25
958.088	1230.61
961.854	1740.48
965.618	3315.03
969.38	6567.93
973.141	7004.9
976.9	4381.37
980.656	3301.17
984.411	3289.06
988.165	3879.04
991.916	5715.1
995.665	10266.2
999.413	24119.5
1003.16	53922.8
1006.9	38046.2
1010.65	16409.8
1014.39	8183.44
1018.12	5011.79
1021.86	3275.73
1025.6	2234.6
1029.33	1640.25
1033.06	1227.38
1036.79	961.866
1040.52	853.148
1044.25	767.893
1047.97	751.906
1051.69	717.021
1055.41	565.331
1059.13	492.39
1062.85	437.773
1066.57	372.13
1070.28	431.481
1073.99	451.01
1077.7	477.608
1081.41	493.313
1085.12	536.79
1088.82	595.75
1092.52	481.276
1096.22	370.524
1099.92	423.206
1103.62	440.508
1107.32	441.995
1111.01	412.614
1114.7	315.486
1118.39	221.719
1122.08	166.439
1125.77	192.214
1129.45	209.016
1133.14	121.842
1136.82	179.687
1140.5	209.708
1144.18	175.912
1147.85	189.098
1151.53	151.624
1155.2	125.946
1158.87	83.285
1162.54	45.391
1166.21	40.396
1169.88	13.43
1173.54	49.055
1177.2	28.551
1180.86	53.522
1184.52	62.344
1188.18	21.398
1191.83	9.237
1195.49	0.566
1199.14	10.611
1202.79	21.099
1206.44	23.712
1210.08	62.247
1213.73	35.688
1217.37	40.526
1221.01	83.41
1224.65	61.457
1228.29	1.298
1231.93	102.748
1235.56	45
1239.19	71.564
1242.83	67.526
1246.46	153.095
1250.08	119.416
1253.71	61.632
1257.33	128.997
1260.96	177.464
1264.58	133.037
1268.19	208.736
1271.81	216.109
1275.43	222.306
1279.04	232.251
1282.65	131.908
1286.27	114.698
1289.87	65.386
1293.48	52.451
1297.09	47.872
1300.69	24.946
1304.29	64.74
1307.89	36.093
1311.49	71.849
1315.09	116.974
1318.68	56.77
1322.28	68.046
1325.87	80.302
1329.46	28.113
1333.05	35.03
1336.63	122.31
1340.22	98.072
1343.8	222.276
1347.38	203.435
1350.96	185.098
1354.54	164.399
1358.12	36.665
1361.69	40.078
1365.26	31.013
1368.83	50.916
1372.4	30.374
1375.97	77.704
1379.54	61.73
1383.1	106.313
1386.66	103.931
1390.23	61.534
1393.79	65.031
1397.34	19.3
1400.9	11.626
1404.45	49.398
1408.01	8.681
1411.56	85.061
1415.11	171.127
1418.66	155.168
1422.2	178.99
1425.75	140.371
1429.29	132.185
1432.83	83.861
1436.37	61.709
1439.91	94.19
1443.44	89.017
1446.98	174.105
1450.51	238.699
1454.04	301.35
1457.57	376.449
1461.1	380.023
1464.63	310.392
1468.15	254.632
1471.67	136.162
1475.19	96.183
1478.71	71.521
1482.23	71.399
1485.75	24.108
1489.26	93.095
1492.78	49.981
1496.29	108.248
1499.8	110.206
1503.31	122.74
1506.81	151.091
1510.32	103.152
1513.82	55.731
