Measurement: Raman, 514 nm, ccw, Raman Data Processed
Mineral: Zoisite
Rruff sample: R050041
Ideal chemistry: Ca_2_Al_3_(Si_2_O_7_)(SiO_4_)O(OH)
Locality: Franklin County, Conway, Massachussetts, USA
Source: University of Arizona Mineral Museum
Description: Tan colored fragment
Measured chemistry: (Ca_.993_Mg_.004_Na_.002_Mn_.001_)_2_(Al_.980_Fe^3+^_.020_)_3_(Si_.986_Fe^3+^_.014_)_3_O_12_(OH)
Pin_id: L00503
Orientation: Laser parallel to -c* (0 0 -1). Fiducial mark perpendicular to laser is parallel to a [1 0 0]
Raman shift (cm-1)	intensity
107.054	0
111.223	282.953
115.391	950.041
119.556	647.394
123.72	351.047
127.882	234.475
132.041	108.221
136.199	276.679
140.355	919.406
144.509	1628.89
148.66	1201.51
152.81	477.816
156.958	122.658
161.105	118.652
165.249	15.66
169.391	56.545
173.531	88.088
177.669	150.105
181.806	329.016
185.94	708.691
190.073	1059.11
194.204	560.283
198.332	7.707
202.459	345.035
206.584	278.375
210.707	232.219
214.828	86.398
218.947	110.934
223.064	115.248
227.179	110.941
231.293	103.342
235.404	31.285
239.514	253.914
243.621	230.094
247.727	186.223
251.831	562.711
255.933	869.535
260.033	1026.81
264.131	600.691
268.227	252.777
272.321	121.152
276.413	391.23
280.504	842.398
284.592	763.83
288.679	605.271
292.764	366.344
296.847	227.207
300.928	167.975
305.007	287.775
309.084	488.604
313.159	287.35
317.233	266.484
321.304	326.059
325.374	786.047
329.442	1405.44
333.508	1945.33
337.572	1247.08
341.634	846.941
345.694	277.77
349.753	209.572
353.809	11.697
357.864	5.867
361.916	246.182
365.967	89.213
370.016	82.535
374.064	3.861
378.109	190.02
382.152	104.193
386.194	78.645
390.233	308.402
394.271	233.465
398.307	215.707
402.341	201.391
406.374	589.033
410.404	953.557
414.433	1730.06
418.459	2016.92
422.484	1354.13
426.507	971.625
430.528	899.369
434.547	867.354
438.565	655.576
442.58	614.588
446.594	399.764
450.606	321.285
454.616	561.447
458.624	502.953
462.631	242.525
466.635	107.58
470.638	502.49
474.639	612.811
478.638	1141.6
482.635	2186.4
486.63	3939.95
490.624	4201.67
494.615	2703.85
498.605	1146.54
502.593	599.914
506.579	583.613
510.564	447.535
514.546	461.648
518.527	425.793
522.506	899.914
526.483	1314.54
530.458	969.316
534.431	733.82
538.403	529.65
542.373	534.857
546.341	490.209
550.307	308.043
554.271	143.689
558.234	272.787
562.195	921.059
566.154	1537.06
570.111	2223.16
574.066	1279.35
578.019	549.637
581.971	348.744
585.921	105.205
589.869	351.658
593.815	488.164
597.76	114.713
601.703	332.814
605.644	49.943
609.583	36.453
613.52	57.166
617.455	159.156
621.389	374.074
625.321	243.123
629.251	100.484
633.18	67.596
637.106	76.859
641.031	191.15
644.954	153.48
648.875	426.15
652.795	450.902
656.712	243.273
660.628	659.57
664.542	553.469
668.455	750.016
672.365	1485.36
676.274	1540.26
680.181	1225.05
684.086	729.828
687.99	534.359
691.891	258.762
695.791	393.021
699.689	97.123
703.586	341.084
707.48	194.881
711.373	158.488
715.264	21.91
719.154	505.066
723.041	278.066
726.927	220.902
730.811	126.312
734.693	495.979
738.574	338.01
742.453	179.83
746.33	281.473
750.205	192.939
754.079	54.225
757.95	354.723
761.82	297.311
765.689	207.119
769.555	224.328
773.42	75.352
777.283	324.523
781.144	294.143
785.004	243.578
788.862	312.814
792.718	149.629
796.572	211.781
800.425	113.844
804.276	191.303
808.125	88.322
811.972	125.211
815.818	89.332
819.662	386.162
823.504	391.473
827.345	316.604
831.183	171.596
835.02	136.441
838.856	251.139
842.689	545.701
846.521	770.137
850.351	353.701
854.18	517.939
858.006	452.6
861.831	1074.23
865.655	1418.07
869.476	1946.31
873.296	1241.54
877.114	1374.94
880.93	1576.98
884.745	1498.44
888.558	1509.13
892.369	1169.22
896.179	821.898
899.987	604.52
903.793	667.031
907.597	737.918
911.4	1100.25
915.201	1231.85
919.001	1267.96
922.798	1246.51
926.594	1260.26
930.388	1837.73
934.181	1509.42
937.972	1130.59
941.761	1301.98
945.548	1014.74
949.334	737.984
953.118	780.168
956.901	1015.49
960.681	1198.03
964.46	872.898
968.238	816.625
972.013	1239.1
975.787	1680.26
979.56	2503.41
983.33	2386.3
987.099	1509.34
990.866	832.688
994.632	706.422
998.396	480.359
1002.16	428.148
1005.92	212.629
1009.68	535.516
1013.43	77.215
1017.19	268.918
1020.94	69.512
1024.7	122
1028.45	23.68
1032.19	345.293
1035.94	246.879
1039.69	558.453
1043.43	690.012
1047.17	361.906
1050.91	623.848
1054.65	1176.27
1058.39	2139.68
1062.13	2994.2
1065.86	4719.84
1069.59	6295.88
1073.32	4902.14
1077.05	3118.61
1080.78	2595.2
1084.5	2850.72
1088.23	3797.68
1091.95	3720.93
1095.67	1808.06
1099.39	1295.23
1103.11	933.227
1106.82	501.996
1110.54	631.52
1114.25	391.613
1117.96	182.234
1121.67	43.484
1125.38	145.758
1129.08	241.152
1132.79	364.348
1136.49	210.168
1140.19	214.426
1143.89	265.672
1147.59	427.906
1151.28	426.633
1154.98	30.023
