Measurement: Raman, 514 nm, ccw, Raman Data Processed
Mineral: Zoisite
Rruff sample: R050038
Ideal chemistry: Ca_2_Al_3_(Si_2_O_7_)(SiO_4_)O(OH)
Locality: Elf Shooting Creek, Clay County, North Carolina, USA
Source: University of Arizona Mineral Museum
Description: Tan colored fragments of single crystals
Measured chemistry: (Ca_.998_Na_.002_)_2_(Al_.982_Fe^3+^_.018_)_3_(Si_.982_Fe^3+^_.018_)_3_O_12_(OH)
Pin_id: M00498
Orientation: Laser parallel to c* (0 0 1). Fiducial mark perpendicular to laser is parallel to a [1 0 0]
Raman shift (cm-1)	intensity
106.637	0
110.825	1769.35
115.011	1850.54
119.195	1559.08
123.377	1218.5
127.556	1453.92
131.734	1170.59
135.909	2241.81
140.083	3260.18
144.254	4310.81
148.423	2984.05
152.59	947.388
156.755	186.941
160.918	52.761
165.078	135.525
169.237	478.684
173.393	951.787
177.548	975.966
181.7	1357.35
185.85	2069.33
189.998	2370.09
194.144	1532.62
198.288	768.947
202.429	420.592
206.569	340.272
210.707	529.903
214.842	331.458
218.976	88.555
223.107	242.853
227.236	236.346
231.363	272.706
235.488	301.057
239.611	142.156
243.732	44.911
247.851	328.439
251.967	830.644
256.082	1913.82
260.195	2279.14
264.305	1773.46
268.414	1270.59
272.52	1334.23
276.624	1844.85
280.726	2265.56
284.827	1815.91
288.925	963.519
293.021	521.376
297.115	434.667
301.207	807.057
305.296	1365.56
309.384	1496.66
313.47	961.15
317.554	814.833
321.635	1082.8
325.715	2083.67
329.792	3815.92
333.868	4382.52
337.941	3177.66
342.013	2160.34
346.082	1513.16
350.15	862.89
354.215	654.781
358.278	523.47
362.339	379.605
366.399	483.047
370.456	427.799
374.511	403.299
378.564	313.394
382.615	282.044
386.664	258.409
390.711	344.353
394.756	488.939
398.799	483.084
402.84	623.132
406.879	1146.18
410.916	2635.14
414.951	5005.46
418.983	5655.89
423.014	4007.61
427.043	3309.41
431.07	3011.03
435.095	2166.37
439.118	1494.54
443.138	952.677
447.157	795.34
451.174	1033
455.189	794.692
459.202	396.146
463.212	357.567
467.221	1039.77
471.228	2033.47
475.233	2783.05
479.236	4139.64
483.237	7407.16
487.235	12259.4
491.232	11191.9
495.227	6184.83
499.22	3187.96
503.211	1969.15
507.2	1468.33
511.187	1238.9
515.172	1421.42
519.155	2060.24
523.136	2859.32
527.115	3054.15
531.092	2801.29
535.067	2420.87
539.04	2030.34
543.011	1649.28
546.98	1387.88
550.947	1298.55
554.913	1610.08
558.876	2352.83
562.837	3847.11
566.797	5897.18
570.754	5967.45
574.709	3608.05
578.663	1844.21
582.614	948.48
586.564	732.002
590.511	910.994
594.457	1289.18
598.401	427.012
602.343	155.62
606.282	119.303
610.22	14.546
614.156	302.723
618.09	783.344
622.022	1161.57
625.952	923.438
629.88	452.943
633.807	53.953
637.731	130.583
641.653	199.421
645.574	593.027
649.492	830.558
653.409	871.852
657.323	835.958
661.236	865.176
665.147	1226.62
669.056	1976.4
672.963	2983.61
676.868	3283.24
680.771	2298.78
684.672	1228.23
688.571	748.591
692.468	391.847
696.364	159.995
700.257	66.015
704.149	4.816
708.038	27.72
711.926	28.347
715.812	111.075
719.696	213.471
723.578	424.53
727.458	362.254
731.336	231.634
735.213	70.656
739.087	56.733
742.96	62.27
746.83	63.37
750.699	36.752
754.566	14.126
758.431	7.245
762.294	36.834
766.155	65.035
770.014	197.692
773.872	188.97
777.727	131.665
781.581	10.375
785.433	20.626
789.282	60.316
793.13	61.769
796.977	99.443
800.821	105.771
804.663	63.244
808.504	30.781
812.342	51.875
816.179	131.047
820.014	195.836
823.847	446.285
827.678	730.4
831.507	936.19
835.334	1286.66
839.16	1418.8
842.983	1655.63
846.805	1395.15
850.625	1229.13
854.443	1414.54
858.259	1623.53
862.074	1901
865.886	2770.08
869.697	3765.05
873.506	3589.86
877.313	3265.23
881.118	3650.42
884.921	4285.15
888.722	4018.44
892.522	3395.66
896.319	2922.97
900.115	2839.14
903.909	2970.38
907.701	3062.99
911.492	3154.02
915.28	3592.85
919.067	3931.93
922.852	3923.91
926.635	4015.77
930.416	3857.75
934.195	3737.7
937.973	3230.44
941.748	2858.83
945.522	2452.93
949.294	2348.47
953.064	2273.12
956.832	2425.8
960.599	2551.97
964.364	2558.06
968.127	2648.45
971.888	3451.32
975.647	4814.11
979.404	6647.24
983.16	6520.48
986.914	4693.86
990.666	3017.4
994.416	1934.09
998.164	1357.96
1001.91	938.864
1005.65	737.299
1009.4	637.592
1013.14	488.611
1016.88	313.194
1020.62	299.083
1024.35	393.589
1028.09	492.478
1031.82	626.193
1035.55	870.718
1039.28	1284.07
1043	1793.3
1046.73	2196.23
1050.45	2403.98
1054.17	2835.06
1057.89	4477.01
1061.61	7714.34
1065.33	12442.7
1069.04	15210.5
1072.75	12558.2
1076.46	8817.47
1080.17	6905.63
1083.88	7335.74
1087.59	9324.2
1091.29	8803.17
1094.99	5442.33
1098.69	3111.96
1102.39	1859.71
1106.09	1250.48
1109.78	934.937
1113.47	700.385
1117.16	526.233
1120.85	417.208
1124.54	255.009
1128.23	161.699
1131.91	116.477
1135.59	80.519
1139.27	233.855
1142.95	226.113
1146.63	158.732
1150.3	45.075
1153.98	1.357
1157.65	18.762
1161.32	59.59
1164.99	33.268
1168.65	179.139
1172.32	69.989
1175.98	28.435
1179.64	50.696
1183.3	20.627
1186.96	11.772
1190.62	44.547
1194.27	32.128
1197.92	127.116
1201.57	107.247
1205.22	67.861
1208.87	57.777
1212.51	54.041
1216.16	90.777
1219.8	18.847
1223.44	51.878
1227.08	120.388
1230.72	68.115
1234.35	105.131
1237.98	48.095
1241.62	35.578
1245.25	5.689
1248.87	64.441
1252.5	47.446
1256.12	58.303
1259.75	193.707
1263.37	151.67
1266.99	42.291
1270.61	13.868
1274.22	50.072
1277.84	102.434
1281.45	53.182
1285.06	10.22
1288.67	97.429
1292.28	41.309
1295.88	6.643
1299.49	34.979
1303.09	17.282
1306.69	119.306
1310.29	5.388
1313.89	52.423
1317.48	45.264
1321.08	27.682
1324.67	55.893
1328.26	119.76
1331.85	169.672
1335.44	180.737
1339.02	63.639
1342.61	77.778
1346.19	26.634
1349.77	47.656
1353.35	147.36
1356.92	89.005
1360.5	230.303
1364.07	99.06
1367.64	77.396
1371.21	167.356
1374.78	26.174
1378.35	43.338
1381.91	151.957
1385.48	48.919
1389.04	192.359
1392.6	125.313
1396.16	167.646
1399.71	106.105
1403.27	194.008
1406.82	131.39
1410.38	89.954
1413.92	51.344
1417.47	60.836
1421.02	19.192
1424.57	85.567
1428.11	187.145
1431.65	143.028
1435.19	193.835
1438.73	211.754
1442.27	193.451
1445.8	214.326
1449.33	168.341
1452.87	201.69
1456.4	141.044
1459.92	69.054
1463.45	171.747
1466.98	190.408
1470.5	270.712
1474.02	260.939
1477.54	137.884
1481.06	119.662
1484.58	145.622
1488.09	99.299
1491.61	81.691
1495.12	136.059
1498.63	61.608
1502.14	68.43
1505.64	37.429
1509.15	119.24
1512.65	95.128
1516.15	243.138
1519.66	0
