Measurement: Raman, 514 nm, ccw, Raman Data Processed
Mineral: Zoisite
Rruff sample: R050038
Ideal chemistry: Ca_2_Al_3_(Si_2_O_7_)(SiO_4_)O(OH)
Locality: Elf Shooting Creek, Clay County, North Carolina, USA
Source: University of Arizona Mineral Museum
Description: Tan colored fragments of single crystals
Measured chemistry: (Ca_.998_Na_.002_)_2_(Al_.982_Fe^3+^_.018_)_3_(Si_.982_Fe^3+^_.018_)_3_O_12_(OH)
Pin_id: L00073
Orientation: Laser parallel to -b* (0 -1 0). Fiducial mark perpendicular to laser is parallel to c [0 0 1]
Raman shift (cm-1)	intensity
108.781	0
112.959	333.283
117.136	1999.83
121.31	2232.75
125.482	1632.47
129.653	920.695
133.821	297.421
137.987	499.822
142.152	1408.19
146.314	2916.22
150.474	2448.78
154.633	1134.51
158.789	487.853
162.943	180.055
167.095	36.768
171.246	33.441
175.394	271.718
179.54	504.814
183.684	833.868
187.826	1654.7
191.967	1943.16
196.105	1230.31
200.241	560.613
204.375	344.483
208.507	118.684
212.638	158.096
216.766	103.423
220.892	62.002
225.016	124.303
229.139	154.999
233.259	72.448
237.377	138.872
241.493	166.166
245.608	17.09
249.72	207.228
253.83	782.769
257.939	1701.66
262.045	2466.49
266.15	2098.87
270.252	946.167
274.353	567.832
278.451	882.477
282.548	1177.44
286.642	1004.52
290.735	576.334
294.826	245.454
298.914	250.354
303.001	789.327
307.086	1865.8
311.168	2599.87
315.249	2024.04
319.328	1516.75
323.405	1592.75
327.48	2146.4
331.553	2807.62
335.624	3276.78
339.693	2455.91
343.76	1948.36
347.826	1224.88
351.889	565.099
355.95	237.603
360.01	125.89
364.067	27.782
368.123	8.182
372.176	64.382
376.228	131.228
380.277	114.308
384.325	4.686
388.371	11.876
392.415	137.15
396.457	242.289
400.497	189.24
404.535	462.262
408.571	1073.75
412.605	2104.4
416.638	3598.86
420.668	4315.13
424.697	3348.4
428.723	3697.73
432.748	4494.21
436.77	3033.88
440.791	1940.86
444.81	1270.74
448.827	1013.55
452.842	1387.05
456.855	1474.45
460.867	560.688
464.876	306.988
468.883	490.329
472.889	1106.4
476.892	1788.45
480.894	2767.01
484.894	5202.26
488.892	9365.38
492.888	9328.51
496.882	5292.07
500.874	2484.96
504.865	1316.92
508.853	811.889
512.84	799.799
516.824	821.821
520.807	1235.48
524.788	2028.7
528.767	2288.87
532.744	1943.02
536.719	1581.77
540.693	1176.56
544.664	867.7
548.634	685.76
552.601	537.798
556.567	643.141
560.531	1106.31
564.493	1936.45
568.453	3189.91
572.412	3366.55
576.368	1931.24
580.323	834.306
584.275	390.075
588.226	377.187
592.175	903.5
596.122	1279.83
600.068	586.174
604.011	65.481
607.952	73.691
611.892	47.018
615.83	285.481
619.766	662.621
623.7	765.976
627.632	599.975
631.563	199.21
635.491	35.978
639.418	2.747
643.343	47.921
647.266	245.911
651.187	473.889
655.106	473.609
659.024	461.121
662.939	555.978
666.853	797.817
670.765	1204.38
674.675	2158.82
678.583	2361.16
682.49	1588.42
686.394	820.612
690.297	598.721
694.198	384.739
698.097	243.648
701.995	101.45
705.89	41.156
709.784	87.72
713.675	187.081
717.565	113.252
721.453	300.229
725.34	294.002
729.224	287.568
733.107	189.925
736.988	72.063
740.867	22.032
744.744	24.498
748.62	115.508
752.493	80.752
756.365	27.517
760.235	8.286
764.103	32.665
767.969	115.49
771.834	167.69
775.697	168.668
779.558	48.435
783.417	20.974
787.274	64.297
791.13	37.921
794.983	40.719
798.835	37.355
802.686	104.401
806.534	143.042
810.38	28.654
814.225	124.017
818.068	82.177
821.909	190.16
825.749	321.972
829.586	581.616
833.422	977.097
837.256	1113.98
841.088	1065.58
844.919	1088.59
848.748	899.456
852.575	868.174
856.4	963.366
860.223	1178.83
864.045	1548.48
867.864	2401.4
871.682	3312.07
875.499	2923.22
879.313	2527.27
883.126	2865.28
886.937	3236.18
890.746	3036.19
894.553	2483.11
898.359	2246.98
902.163	2143.01
905.965	2274.4
909.765	2047.69
913.564	2173.37
917.361	2253.79
921.156	2517.46
924.949	2766.71
928.74	2807.16
932.53	2747
936.318	2326.08
940.104	1999.92
943.889	1676.9
947.672	1554.23
951.453	1505.65
955.232	1385.84
959.01	1476.84
962.785	1584.59
966.559	1685.83
970.332	1890.14
974.102	2508.66
977.871	3610.32
981.638	4812.1
985.404	4634.02
989.167	3106.1
992.929	1958.38
996.689	1309.89
1000.45	984.579
1004.2	675.43
1007.96	449.96
1011.71	318.26
1015.46	329.6
1019.21	298.644
1022.96	343.947
1026.71	404.424
1030.45	330.396
1034.19	430.903
1037.94	635.184
1041.68	970.985
1045.41	1338.33
1049.15	1555.09
1052.88	1737.55
1056.62	1883.93
1060.35	3120.65
1064.08	5457.93
1067.8	8915.27
1071.53	10772.9
1075.25	8701.5
1078.97	5791.62
1082.7	4780.38
1086.41	5108.69
1090.13	6597.18
1093.85	6275.94
1097.56	3865.08
1101.27	2324.6
1104.98	1487.37
1108.69	1022.65
1112.4	647.303
1116.1	483.249
1119.81	263.199
1123.51	232.277
1127.21	174.478
1130.91	227.113
1134.61	96.507
1138.3	35.472
1141.99	116.147
1145.68	107.342
1149.38	99.56
1153.06	112.423
1156.75	90.591
1160.43	12.865
1164.12	2.829
1167.8	23.737
1171.48	65.224
1175.16	33.709
1178.83	8.853
1182.51	98.1
1186.18	174.431
1189.85	52.708
1193.52	47.608
1197.19	14.401
1200.86	23.293
1204.52	36.699
1208.19	25.568
1211.85	122.237
1215.51	186.911
1219.17	185.828
1222.82	105.377
1226.48	5.38
1230.13	77.604
1233.78	59.635
1237.43	31.026
1241.08	136.781
1244.73	177.938
1248.37	137.218
1252.01	115.274
1255.66	99.312
1259.3	98.294
1262.93	115.183
1266.57	114.674
1270.21	93.932
1273.84	126.774
1277.47	63.351
1281.1	124.593
1284.73	73.704
1288.36	1.459
1291.98	19.147
1295.6	37.44
1299.23	13.493
1302.85	8.741
1306.46	57.575
1310.08	43.257
1313.7	140.008
1317.31	42.301
1320.92	23.215
1324.53	62.902
1328.14	104.334
1331.75	25.869
1335.35	12.785
1338.96	151.329
1342.56	193.647
1346.16	298.384
1349.76	136.944
1353.36	260.248
1356.95	103.11
1360.55	74.024
1364.14	107.819
1367.73	67.664
1371.32	91.253
1374.91	116.738
1378.49	238.385
1382.08	232.591
1385.66	286.548
1389.24	234.192
1392.82	238.323
1396.4	235.467
1399.97	127.842
1403.55	85.287
1407.12	175.332
1410.69	167.159
1414.26	163.142
1417.83	204.146
1421.4	219.535
1424.96	188.632
1428.53	75.072
1432.09	161.92
1435.65	85.854
1439.21	78.521
1442.76	5.269
1446.32	110.532
1449.87	204.944
1453.43	203.15
1456.98	319.111
1460.53	234.984
1464.07	280.39
1467.62	337.017
1471.16	179.047
1474.71	80.584
1478.25	56.232
1481.79	47.727
1485.32	108.487
1488.86	96.987
1492.39	110.803
1495.93	200.146
1499.46	230.59
1502.99	262.275
1506.52	156.407
1510.05	64.973
1513.57	91.171
1517.09	0
