Measurement: Raman, 514 nm, ccw, Raman Data Processed
Mineral: Zoisite
Rruff sample: R050041
Ideal chemistry: Ca_2_Al_3_(Si_2_O_7_)(SiO_4_)O(OH)
Locality: Franklin County, Conway, Massachussetts, USA
Source: University of Arizona Mineral Museum
Description: Tan colored fragment
Measured chemistry: (Ca_.993_Mg_.004_Na_.002_Mn_.001_)_2_(Al_.980_Fe^3+^_.020_)_3_(Si_.986_Fe^3+^_.014_)_3_O_12_(OH)
Pin_id: M00473
Orientation: Laser parallel to a* (1 0 0). Fiducial mark perpendicular to laser is parallel to b [0 1 0]
Raman shift (cm-1)	intensity
116.406	0
120.589	1142.03
124.77	518.582
128.949	133.055
133.126	80.897
137.301	240.176
141.473	717.086
145.644	1558.55
149.812	2202.5
153.979	1197.49
158.143	681.404
162.305	551.92
166.465	557.373
170.623	696.818
174.778	779.639
178.932	925.422
183.083	1286.6
187.233	1836.42
191.38	2017.51
195.525	1979.14
199.669	1261.29
203.81	642.816
207.949	474.049
212.085	515.574
216.22	557.641
220.353	580.361
224.483	373.809
228.612	378.02
232.738	353.006
236.863	238.758
240.985	257.279
245.105	441.41
249.223	519.123
253.339	967.922
257.453	1446.87
261.565	1452.11
265.675	797.973
269.783	664.521
273.888	541.711
277.992	519.541
282.093	710.713
286.193	573.631
290.29	501.303
294.386	442.264
298.479	354.516
302.57	711.836
306.659	1798.88
310.746	3487.27
314.831	3236.79
318.914	1737.32
322.995	1028.75
327.074	881.035
331.151	1194.05
335.226	1907.71
339.299	2991.96
343.37	4956.76
347.438	4902.06
351.505	2517.74
355.57	1083.76
359.632	360.123
363.693	6.809
367.751	103.799
371.808	208.941
375.862	261.654
379.914	174.393
383.965	147.18
388.013	114.855
392.06	97.32
396.104	365.08
400.146	123.17
404.186	311.58
408.225	650.115
412.261	788.203
416.295	1055.64
420.327	1033.21
424.357	851.27
428.386	429.826
432.412	998.793
436.436	1188.06
440.458	1042.3
444.478	707.451
448.496	687.777
452.513	548.631
456.527	603.309
460.539	134.816
464.549	286.623
468.557	798.682
472.563	1591.01
476.567	2243.6
480.57	2730.65
484.57	4316.31
488.568	8517.26
492.564	11001.3
496.558	7055.97
500.551	3481.19
504.541	1495.51
508.529	1000.77
512.515	676.4
516.5	812.195
520.482	1018.16
524.462	1552.74
528.441	1749
532.417	1274.26
536.391	902.123
540.364	348.354
544.334	350.152
548.303	466.953
552.269	184.842
556.234	652.564
560.197	862.561
564.157	1763.96
568.116	3505.29
572.073	4573.47
576.027	3321.19
579.98	1528.5
583.931	807.178
587.88	623.266
591.827	1245.17
595.772	2453.34
599.715	1651.57
603.656	479.85
607.595	38.18
611.532	276.543
615.468	144.869
619.401	753.188
623.332	1099.66
627.262	1038
631.189	686.352
635.115	484.742
639.039	213.016
642.96	83.25
646.88	46.035
650.798	45.207
654.714	503.316
658.628	227.152
662.54	634.023
666.45	816.586
670.358	1516.59
674.264	3496.11
678.169	3834.11
682.071	2681.93
685.972	1499.08
689.87	1396.3
693.767	893.734
697.662	761.391
701.555	40.637
705.446	117.395
709.335	455.309
713.222	12.855
717.107	9.812
720.99	257.285
724.872	184.203
728.751	411.035
732.629	232.277
736.504	106.168
740.378	210.484
744.25	14.594
748.12	259.398
751.988	424.035
755.854	228.516
759.719	222.836
763.581	456.906
767.442	680.91
771.3	761.219
775.157	754.898
779.012	958.434
782.865	961.824
786.716	475.051
790.565	618.113
794.413	426.805
798.258	180.941
802.102	268.594
805.943	142.461
809.783	193.438
813.621	463.961
817.457	293.914
821.292	53.426
825.124	182.48
828.954	461.363
832.783	120.082
836.61	438.711
840.435	617.246
844.258	475.652
848.079	603.941
851.898	962.109
855.715	1124.46
859.531	2022.2
863.345	2365.42
867.157	3869.93
870.967	6304.74
874.775	5442.16
878.581	3512.87
882.386	2522.27
886.188	2280.89
889.989	2281.9
893.788	2231.32
897.585	2163.93
901.38	2409.75
905.174	2516.21
908.965	3112.57
912.755	4098.85
916.543	5565.07
920.329	8581.24
924.113	13187.4
927.895	14553.6
931.676	9869.78
935.454	5565.93
939.231	3442.09
943.006	2148.22
946.78	2204.43
950.551	1234.96
954.32	1249.16
958.088	834.004
961.854	1070.02
965.618	710
969.38	846.961
973.141	1406.6
976.9	2292.17
980.656	3126.56
984.411	3804.27
988.165	2918.09
991.916	1705.09
995.665	942.594
999.413	420.586
1003.16	388.059
1006.9	156.422
1010.65	203.395
1014.39	310.637
1018.12	556.707
1021.86	142.527
1025.6	168.188
1029.33	85.992
1033.06	270.48
1036.79	132.777
1040.52	683.969
1044.25	710.711
1047.97	787.457
1051.69	864.211
1055.41	380.969
1059.13	807.828
1062.85	1015.76
1066.57	1024.83
1070.28	1815.33
1073.99	1146.65
1077.7	1148.17
1081.41	1009.84
1085.12	1291.79
1088.82	2014.03
1092.52	3176.52
1096.22	2146.54
1099.92	1127.63
1103.62	587.176
1107.32	400.172
1111.01	353.863
1114.7	358.359
1118.39	673.559
1122.08	679.223
1125.77	235.324
1129.45	361.891
1133.14	109.484
1136.82	453.281
1140.5	118.504
1144.18	96
1147.85	437.805
1151.53	667.434
1155.2	557.836
1158.87	73.707
1162.54	183.074
