Measurement: Raman, 514 nm, ccw, Raman Data Processed
Mineral: Zoisite
Rruff sample: R050041
Ideal chemistry: Ca_2_Al_3_(Si_2_O_7_)(SiO_4_)O(OH)
Locality: Franklin County, Conway, Massachussetts, USA
Source: University of Arizona Mineral Museum
Description: Tan colored fragment
Measured chemistry: (Ca_.993_Mg_.004_Na_.002_Mn_.001_)_2_(Al_.980_Fe^3+^_.020_)_3_(Si_.986_Fe^3+^_.014_)_3_O_12_(OH)
Pin_id: L00320
Orientation: Laser parallel to b* (0 1 0). Fiducial mark perpendicular to laser is parallel to c [0 0 1]
Raman shift (cm-1)	intensity
101.492	0
105.664	274.268
109.834	715.223
114.002	872.476
118.168	1386.36
122.332	1122.31
126.495	559.588
130.655	261.699
134.813	232.319
138.97	368.023
143.124	907.903
147.277	1195.93
151.427	672.729
155.576	365.907
159.723	0.349
163.867	23.294
168.01	33.693
172.151	2.97
176.29	127.621
180.427	277.443
184.562	627.654
188.696	768.227
192.827	419.309
196.956	320.902
201.084	42.957
205.209	4.604
209.333	21.824
213.454	106.648
217.574	4.58
221.692	87.988
225.808	1.578
229.922	33.959
234.034	140.174
238.144	75.746
242.252	11.617
246.359	16.281
250.463	210.688
254.566	524.779
258.666	718.998
262.765	573.465
266.862	317.521
270.957	52.447
275.05	158.775
279.141	185.73
283.23	493.004
287.317	140.416
291.403	87.922
295.486	135.451
299.568	362.844
303.647	780.016
307.725	1257.14
311.801	1384.45
315.875	921.895
319.947	789.197
324.018	686.264
328.086	942.965
332.153	1157.32
336.217	993.102
340.28	618.67
344.341	645.961
348.4	283.428
352.457	121.068
356.512	38.869
360.566	36.832
364.617	314.947
368.667	119.242
372.715	49.338
376.761	137.9
380.805	186.281
384.847	155.123
388.887	86.227
392.926	190.789
396.962	413.842
400.997	97.775
405.03	443.277
409.061	772.07
413.09	1140.28
417.117	1410.14
421.143	1230.2
425.166	1270.5
429.188	1840.95
433.208	1601.54
437.226	992.238
441.242	833.041
445.256	543.936
449.269	828.68
453.28	849.807
457.288	451.064
461.295	332.529
465.3	366.953
469.304	416.949
473.305	496.316
477.305	862.219
481.303	1667.31
485.298	2802.47
489.293	3480.84
493.285	2584.09
497.275	1426.84
501.264	669.787
505.251	542.812
509.236	385.914
513.219	329.066
517.2	501.865
521.18	745.211
525.157	851.641
529.133	861.979
533.107	695.568
537.079	489.26
541.05	202.945
545.018	356.879
548.985	777.498
552.95	21.264
556.913	45.195
560.875	119.418
564.834	424.293
568.792	978.465
572.748	832.766
576.702	551.834
580.654	224.732
584.605	220.723
588.553	395.025
592.5	669.135
596.445	563.314
600.389	147.363
604.33	21.83
608.27	358.865
612.208	3.521
616.144	204.018
620.078	408.945
624.011	58.305
627.941	161.736
631.87	74.848
635.798	20.992
639.723	111.639
643.647	284.502
647.568	14.627
651.488	194.467
655.407	135.504
659.323	227.164
663.238	230.4
667.151	461.828
671.062	560.555
674.971	841.803
678.879	722.871
682.785	443.811
686.689	484.691
690.591	465.369
694.491	146.07
698.39	286.475
702.287	356.738
706.182	261.096
710.076	197.123
713.968	107.139
717.857	357.008
721.746	476.725
725.632	406.283
729.517	455.693
733.4	14.865
737.281	23.746
741.16	182.312
745.038	300.721
748.913	138.979
752.788	417.086
756.66	245.039
760.531	7.16
764.399	196.676
768.267	184.066
772.132	38.805
775.996	52.125
779.857	201.463
783.718	189.451
787.576	28.021
791.433	7.668
795.288	52.553
799.141	4.971
802.992	66.537
806.842	108.223
810.69	252.707
814.536	246.953
818.381	161.064
822.223	115.059
826.065	558.895
829.904	622.508
833.741	446.035
837.577	249.48
841.412	272.85
845.244	386.146
849.075	549.332
852.904	622.486
856.731	265.363
860.556	548.48
864.38	811.537
868.202	1044.34
872.023	1407.35
875.842	799.572
879.658	732.447
883.474	795.131
887.287	831.859
891.099	776.199
894.909	698.449
898.718	740.844
902.524	633.254
906.329	465.727
910.133	468.16
913.934	776.988
917.734	899.438
921.532	781.055
925.329	1021.84
929.124	452.297
932.917	734.844
936.708	497.496
940.498	569.562
944.286	457.066
948.072	664.336
951.857	235.789
955.64	297.211
959.421	327.559
963.201	611.629
966.979	604.992
970.755	396.77
974.529	800.348
978.302	1096.81
982.073	1320.64
985.843	1464.94
989.611	879.621
993.377	573.898
997.141	218.465
1000.9	183.137
1004.66	148.242
1008.42	216.34
1012.18	239.332
1015.94	193.219
1019.69	309.809
1023.45	174.414
1027.2	187.555
1030.95	60.688
1034.69	414.082
1038.44	427.711
1042.18	861.41
1045.93	685.203
1049.67	389.195
1053.41	863.746
1057.14	848.734
1060.88	1533.95
1064.62	2149.63
1068.35	2825.98
1072.08	2892.99
1075.81	1910.38
1079.54	1268.28
1083.26	1226.52
1086.99	1785.04
1090.71	2483.86
1094.43	1974.57
1098.15	982.66
1101.87	580.949
1105.59	619.73
1109.3	37.402
1113.01	287.262
1116.72	447.777
1120.43	568.945
1124.14	350.746
1127.85	63.152
1131.55	156.148
1135.26	350.348
1138.96	346.805
1142.66	324.832
1146.36	324.914
1150.05	187.293
1153.75	291.027
1157.44	283.027
1161.13	64.941
1164.82	412.723
1168.51	172.75
1172.2	403.121
