Measurement: Raman, 514 nm, ccw, Raman Data Processed
Mineral: Zoisite
Rruff sample: R050038
Ideal chemistry: Ca_2_Al_3_(Si_2_O_7_)(SiO_4_)O(OH)
Locality: Elf Shooting Creek, Clay County, North Carolina, USA
Source: University of Arizona Mineral Museum
Description: Tan colored fragments of single crystals
Measured chemistry: (Ca_.998_Na_.002_)_2_(Al_.982_Fe^3+^_.018_)_3_(Si_.982_Fe^3+^_.018_)_3_O_12_(OH)
Pin_id: L00064
Orientation: Laser parallel to a* (1 0 0). Fiducial mark perpendicular to laser is parallel to b [0 1 0]
Raman shift (cm-1)	intensity
110.174	0
114.351	595.982
118.527	3118.58
122.701	3446.88
126.873	1263
131.042	122.089
135.21	50.795
139.376	520.337
143.539	1691.77
147.701	3601.65
151.861	2734.98
156.018	1018.31
160.174	279.838
164.327	85.3
168.479	140.915
172.628	409.599
176.776	989.359
180.922	1474.4
185.065	2244.49
189.207	3198.84
193.346	3312.76
197.484	2272.45
201.619	1427.29
205.753	603.785
209.884	166.038
214.014	111.681
218.141	42.044
222.267	199.526
226.391	196.621
230.512	141.815
234.632	81.434
238.749	257.557
242.865	126.589
246.979	61.46
251.09	99.084
255.2	491.348
259.308	1127.52
263.414	760.469
267.517	220.605
271.619	131.984
275.719	279.874
279.817	883.604
283.913	1510.7
288.007	1804.09
292.099	1395.42
296.189	1109.22
300.277	1491.9
304.363	3243.71
308.447	6148.85
312.529	7060.67
316.609	4569.35
320.687	2493.82
324.764	1753.46
328.838	1679.42
332.91	2071.3
336.981	2672.98
341.049	4097.6
345.116	5783.43
349.18	4933.29
353.243	3013.55
357.304	1522.43
361.362	852.333
365.419	479.865
369.474	445.284
373.527	368.801
377.578	247.388
381.627	282.533
385.674	312.445
389.719	566.044
393.762	1211.99
397.804	1253
401.843	899.103
405.881	1130.79
409.916	1630.81
413.95	1910.39
417.981	2353.29
422.011	2346.18
426.039	1960.08
430.065	2085.13
434.089	2394.26
438.111	2245.6
442.131	1584.04
446.149	1069.63
450.166	804.514
454.18	982.645
458.193	782.938
462.203	340.373
466.212	493.79
470.219	1305.45
474.224	2289.52
478.227	2986.86
482.228	4637.97
486.227	8963.86
490.224	14144.8
494.22	11384.4
498.213	5563.9
502.205	2683.34
506.194	1522.78
510.182	1061.96
514.168	991.969
518.152	1179.56
522.134	1696.09
526.114	2297.95
530.093	2137.97
534.069	1376.47
538.044	733.819
542.017	405.536
545.987	188.415
549.956	52.708
553.923	130.838
557.889	285.923
561.852	676.029
565.813	1426.38
569.773	1907.17
573.731	1648.45
577.686	810.97
581.64	465.103
585.593	531.184
589.543	847.347
593.491	2260.25
597.438	2496.72
601.382	1114.38
605.325	396.337
609.266	109.083
613.205	6.906
617.142	181.631
621.078	148.591
625.011	446.805
628.943	170.584
632.872	76.985
636.8	106.641
640.726	26.716
644.651	10.655
648.573	199.601
652.494	468.715
656.412	331.798
660.329	263.677
664.244	268.201
668.157	497.317
672.069	1164.28
675.978	1861.09
679.886	1647.75
683.792	954.323
687.696	710.841
691.598	587.322
695.498	653.77
699.397	349.178
703.293	119.215
707.188	98.977
711.081	91.742
714.972	185.355
718.862	203.049
722.749	278.542
726.635	306.836
730.519	57.919
734.401	42.769
738.281	54.693
742.16	5.74
746.036	65.347
749.911	2.509
753.784	22.957
757.655	35.034
761.525	139.78
765.392	88.108
769.258	182.878
773.122	169.155
776.984	208.788
780.844	299.393
784.703	149.571
788.56	26.712
792.415	55.389
796.268	55.967
800.119	29.316
803.969	91.065
807.816	47.314
811.662	24.729
815.506	32.771
819.349	19.864
823.189	116.789
827.028	163.555
830.865	350.178
834.7	426.674
838.534	459.978
842.365	529.267
846.195	745.366
850.023	941.379
853.85	1147.31
857.674	1712.63
861.497	2356.72
865.318	2941.15
869.137	4356.11
872.955	4901.25
876.77	3636.64
880.584	2712.01
884.396	2636.39
888.207	2920.18
892.015	3084.72
895.822	3264.39
899.627	3506.68
903.43	3323.54
907.232	3053.9
911.032	3092.47
914.83	3525.87
918.626	4699.41
922.42	6464.11
926.213	7428.64
930.004	6083.53
933.793	3538.43
937.581	2193.18
941.366	1464.29
945.15	1316.97
948.932	904.795
952.713	912.682
956.491	758.556
960.268	802.001
964.044	796.806
967.817	824.334
971.589	1184.68
975.359	1709.99
979.127	2515.85
982.893	3332.56
986.658	2799.81
990.421	1875.89
994.183	1213.08
997.942	749.325
1001.7	593.505
1005.46	333.787
1009.21	272.442
1012.96	80.289
1016.71	113.016
1020.46	91.062
1024.21	208.507
1027.96	146.279
1031.7	244.403
1035.44	162.313
1039.18	380.337
1042.92	478.462
1046.66	536.824
1050.39	555.473
1054.13	454.697
1057.86	504.002
1061.59	763.234
1065.32	1222.57
1069.05	1841.88
1072.77	1982.34
1076.49	1381.77
1080.22	1135.99
1083.94	1264.79
1087.65	1605.76
1091.37	1975.9
1095.09	1935.54
1098.8	1355.77
1102.51	916.074
1106.22	546.537
1109.93	326.935
1113.63	187.497
1117.34	238.576
1121.04	129.436
1124.74	140.614
1128.44	141.625
1132.14	25.8
1135.84	45.433
1139.53	121.212
1143.22	10.432
1146.91	117.892
1150.61	87.216
1154.29	127.852
1157.98	15.033
1161.66	1.471
1165.35	2.183
1169.03	17.799
1172.71	9.096
1176.38	85.749
1180.06	209.231
1183.73	183.942
1187.41	285.627
1191.08	66.241
1194.75	129.253
1198.41	109.944
1202.08	59.108
1205.74	118.566
1209.41	179.638
1213.07	150.638
1216.73	149.278
1220.38	137.937
1224.04	53.22
1227.69	55.724
1231.35	214.189
1235	153.112
1238.65	241.116
1242.3	288.419
1245.94	146.183
1249.59	103.55
1253.23	172.566
1256.87	335.799
1260.51	266.559
1264.15	193.017
1267.78	229.154
1271.42	195.14
1275.05	300.72
1278.68	304.589
1282.31	48.948
1285.94	44.3
1289.56	117.23
1293.19	14.668
1296.81	77.683
1300.43	119.299
1304.05	99.928
1307.67	1.649
1311.29	62.196
1314.9	68.629
1318.52	50.048
1322.13	0.665
1325.74	90.806
1329.34	100.794
1332.95	131.857
1336.56	154.066
1340.16	273.482
1343.76	262.313
1347.36	210.217
1350.96	8.232
1354.56	5.966
1358.15	223.159
1361.74	170.737
1365.34	296.228
1368.93	177.508
1372.52	182.562
1376.1	157.435
1379.69	159.506
1383.27	271.491
1386.85	172.944
1390.43	144.611
1394.01	15.482
1397.59	175.914
1401.17	133.008
1404.74	379.647
1408.31	412.41
1411.88	249.639
1415.45	253.134
1419.02	235.665
1422.59	64.549
1426.15	130.03
1429.71	176.311
1433.28	190.724
1436.84	6.32
1440.39	299.638
1443.95	201.374
1447.5	430.896
1451.06	249.676
1454.61	339.109
1458.16	223.838
1461.71	311.479
1465.26	89.473
1468.8	187.183
1472.34	5.623
1475.89	28.687
1479.43	96.614
1482.97	234.163
1486.5	311.638
1490.04	257.726
1493.57	243.975
1497.11	271.928
1500.64	301.479
1504.17	169.79
1507.69	45.689
1511.22	69.578
1514.74	9.465
