Measurement: Raman, 514 nm, ccw, Raman Data Processed
Mineral: Zoisite
Rruff sample: R050041
Ideal chemistry: Ca_2_Al_3_(Si_2_O_7_)(SiO_4_)O(OH)
Locality: Franklin County, Conway, Massachussetts, USA
Source: University of Arizona Mineral Museum
Description: Tan colored fragment
Measured chemistry: (Ca_.993_Mg_.004_Na_.002_Mn_.001_)_2_(Al_.980_Fe^3+^_.020_)_3_(Si_.986_Fe^3+^_.014_)_3_O_12_(OH)
Pin_id: L00320
Orientation: Laser parallel to b* (0 1 0). Fiducial mark perpendicular to laser is parallel to c [0 0 1]
Raman shift (cm-1)	intensity
102.883	0
107.054	364.22
111.223	925.323
115.391	2241.19
119.556	2603.36
123.72	1538.32
127.882	306.104
132.041	33.326
136.199	49.918
140.355	815.871
144.509	2139.46
148.66	2024.59
152.81	897.459
156.958	371.061
161.105	337.127
165.249	315.666
169.391	274.504
173.531	602.402
177.669	732.449
181.806	1132.72
185.94	1770.39
190.073	2162.98
194.204	1402.36
198.332	642.596
202.459	343.688
206.584	165.562
210.707	51.855
214.828	148.639
218.947	95.135
223.064	39.359
227.179	3.979
231.293	21.031
235.404	105.543
239.514	79.906
243.621	45.76
247.727	221.586
251.831	57.367
255.933	462.773
260.033	418.434
264.131	184.486
268.227	51.68
272.321	148.443
276.413	2.111
280.504	275.887
284.592	344.918
288.679	234.609
292.764	344.732
296.847	375.195
300.928	1145.86
305.007	2716.62
309.084	4074.08
313.159	3438.42
317.233	1769.4
321.304	960.439
325.374	641.322
329.442	562.242
333.508	482.73
337.572	682.592
341.634	1002.57
345.694	552.812
349.753	343.168
353.809	183.289
357.864	323.545
361.916	284.033
365.967	144.744
370.016	75.666
374.064	72.654
378.109	214.35
382.152	35.869
386.194	87.291
390.233	271.072
394.271	548.168
398.307	346.721
402.341	703.068
406.374	1431.89
410.404	1514.66
414.433	1867.46
418.459	1600.61
422.484	1524.02
426.507	1477.63
430.528	1782.91
434.547	1843.52
438.565	1654.04
442.58	1328.47
446.594	1153.04
450.606	907.748
454.616	1262.64
458.624	692.146
462.631	661.555
466.635	345.238
470.638	943.268
474.639	1419.05
478.638	2031.98
482.635	3901.5
486.63	6715.67
490.624	7252.17
494.615	4240.65
498.605	1967.45
502.593	1127.7
506.579	864.752
510.564	871.9
514.546	699.174
518.527	706.586
522.506	1454.09
526.483	1871.56
530.458	1359.24
534.431	987.08
538.403	587.955
542.373	393.24
546.341	361.479
550.307	349.863
554.271	71.615
558.234	287.596
562.195	316.541
566.154	395.648
570.111	404.811
574.066	284.018
578.019	169.896
581.971	216.689
585.921	603.262
589.869	1002.67
593.815	1592.23
597.76	842.156
601.703	691.875
605.644	21.598
609.583	21.324
613.52	72.488
617.455	15.73
621.389	37.312
625.321	122.221
629.251	97.48
633.18	16.566
637.106	3.652
641.031	192.059
644.954	97.396
648.875	255.74
652.795	380.207
656.712	272.582
660.628	500.473
664.542	418.686
668.455	316.713
672.365	559.396
676.274	576.971
680.181	744.424
684.086	421.799
687.99	392.939
691.891	500.145
695.791	747.824
699.689	255.611
703.586	292.531
707.48	158.711
711.373	142.924
715.264	239.574
719.154	716.152
723.041	512.646
726.927	129.029
730.811	15.305
734.693	651.369
738.574	417.232
742.453	142.895
746.33	398.398
750.205	93.787
754.079	159.043
757.95	344.178
761.82	279.191
765.689	55.916
769.555	184.215
773.42	157.279
777.283	85.703
781.144	204.197
785.004	335.395
788.862	338.492
792.718	283.865
796.572	154.723
800.425	239.529
804.276	251.943
808.125	202.293
811.972	124.289
815.818	22.859
819.662	194.66
823.504	326.418
827.345	58.012
831.183	249.488
835.02	160.906
838.856	32.258
842.689	553.516
846.521	564.656
850.351	4.258
854.18	196.766
858.006	520.117
861.831	1141.07
865.655	1632.02
869.476	2362.43
873.296	1498.38
877.114	1389.19
880.93	1380.23
884.745	1108.91
888.558	914.961
892.369	1065.23
896.179	411.332
899.987	261.844
903.793	552.109
907.597	322.57
911.4	683.012
915.201	703.445
919.001	497.426
922.798	737.898
926.594	791.27
930.388	1032.75
934.181	723.5
937.972	318.219
941.761	699.07
945.548	709.195
949.334	303.18
953.118	557.43
956.901	558.547
960.681	743.562
964.46	600.676
968.238	351.863
972.013	815.883
975.787	1349.27
979.56	1936.19
983.33	1638.38
987.099	890.754
990.866	563.125
994.632	452.312
998.396	445.102
1002.16	588.871
1005.92	82.137
1009.68	355.695
1013.43	211.219
1017.19	424.566
1020.94	123.781
1024.7	247.43
1028.45	21.328
1032.19	490.148
1035.94	241.793
1039.69	493.496
1043.43	375.281
1047.17	87.309
1050.91	239.844
1054.65	592.785
1058.39	905.98
1062.13	1099.84
1065.86	1294.39
1069.59	1319.36
1073.32	1064.48
1077.05	999.992
1080.78	1125.73
1084.5	1121.88
1088.23	1078.23
1091.95	1260.18
1095.67	476.336
1099.39	792.195
1103.11	739.113
1106.82	426.652
1110.54	604.824
1114.25	263.641
1117.96	56.918
1121.67	46.875
1125.38	93.812
1129.08	315.277
1132.79	398.406
1136.49	443.75
1140.19	300.883
1143.89	336.379
1147.59	632.652
1151.28	621.902
1154.98	282.109
1158.67	246.16
1162.36	693.027
1166.05	202.57
