Measurement: Raman, 514 nm, ccw, Raman Data Processed
Mineral: Zoisite
Rruff sample: R050038
Ideal chemistry: Ca_2_Al_3_(Si_2_O_7_)(SiO_4_)O(OH)
Locality: Elf Shooting Creek, Clay County, North Carolina, USA
Source: University of Arizona Mineral Museum
Description: Tan colored fragments of single crystals
Measured chemistry: (Ca_.998_Na_.002_)_2_(Al_.982_Fe^3+^_.018_)_3_(Si_.982_Fe^3+^_.018_)_3_O_12_(OH)
Pin_id: L00064
Orientation: Laser parallel to a* (1 0 0). Fiducial mark perpendicular to laser is parallel to b [0 1 0]
Raman shift (cm-1)	intensity
108.781	0
112.959	1365.96
117.136	6059.59
121.31	9820.75
125.482	5542.28
129.653	1380.54
133.821	152.661
137.987	237.548
142.152	2103.18
146.314	6410.09
150.474	7325.13
154.633	3326.01
158.789	816.281
162.943	337.859
167.095	375.057
171.246	941.828
175.394	1772.35
179.54	2866.63
183.684	4305.52
187.826	6613.18
191.967	7730.49
196.105	5941.36
200.241	3545.67
204.375	1957.31
208.507	667.338
212.638	152.452
216.766	45.014
220.892	95.61
225.016	98.225
229.139	34.08
233.259	195.228
237.377	145.262
241.493	168.1
245.608	94.393
249.72	136.749
253.83	642.45
257.939	1387.65
262.045	1623.79
266.15	687.757
270.252	45.07
274.353	35.439
278.451	467.46
282.548	1029.64
286.642	1273.26
290.735	1076.09
294.826	1057.49
298.914	1721.34
303.001	3835.56
307.086	8885.1
311.168	14749.5
315.249	12149.9
319.328	6896.61
323.405	4018.08
327.48	2923.12
331.553	2576.62
335.624	2499.94
339.693	2912.41
343.76	4056.41
347.826	3418.51
351.889	1769.55
355.95	1015.57
360.01	731.496
364.067	706.271
368.123	676.297
372.176	657.64
376.228	844.605
380.277	730.854
384.325	516.738
388.371	558.069
392.415	826.148
396.457	1051.95
400.497	1420.89
404.535	2524.74
408.571	4319.1
412.605	5272.62
416.638	5947.13
420.668	6373.25
424.697	5806.83
428.723	5741.99
432.748	6137.71
436.77	6046.33
440.791	4906.67
444.81	3757.12
448.827	2951
452.842	3043.43
456.855	3237.16
460.867	1845.08
464.876	1556.95
468.883	2419.1
472.889	3984.19
476.892	5613.23
480.894	7953.67
484.894	14106.9
488.892	25303.7
492.888	25767.6
496.882	14830.7
500.874	7283.55
504.865	4086.12
508.853	2738.42
512.84	2310.42
516.824	2439.27
520.807	3382.84
524.788	4904.77
528.767	5526.03
532.744	4187.43
536.719	2660.86
540.693	1594.52
544.664	937.79
548.634	710.827
552.601	506.887
556.567	608.32
560.531	842.65
564.493	1077.92
568.453	1323.91
572.412	1280.43
576.368	847.169
580.323	793.934
584.275	921.478
588.226	1389.29
592.175	3299.65
596.122	5194.7
600.068	2804.96
604.011	998.431
607.952	262.561
611.892	18.472
615.83	13.008
619.766	93.01
623.7	27.381
627.632	55.028
631.563	237.04
635.491	128.044
639.418	120.996
643.343	2.819
647.266	135.794
651.187	228.562
655.106	370.243
659.024	338.14
662.939	350.174
666.853	364.608
670.765	758.652
674.675	1432.39
678.583	1456.12
682.49	1009.87
686.394	673.654
690.297	917.464
694.198	1161.28
698.097	965.097
701.995	568.902
705.89	282.71
709.784	416.493
713.675	430.188
717.565	563.74
721.453	857.134
725.34	740.357
729.224	563.398
733.107	336.254
736.988	138.921
740.867	121.384
744.744	33.626
748.62	34.396
752.493	42.828
756.365	18.242
760.235	68.889
764.103	20.849
767.969	17.756
771.834	53.391
775.697	119.06
779.558	52.333
783.417	64.405
787.274	65.375
791.13	6.199
794.983	75.255
798.835	22.675
802.686	18.877
806.534	33.064
810.38	27.444
814.225	121.998
818.068	13.073
821.909	87.988
825.749	202.765
829.586	157.403
833.422	231.914
837.256	216.296
841.088	380.55
844.919	494.681
848.748	598.706
852.575	742.641
856.4	1146.51
860.223	1720.31
864.045	2743.99
867.864	4647.6
871.682	6461.15
875.499	4924.6
879.313	3387.97
883.126	3291.26
886.937	3424.47
890.746	3067.34
894.553	2599.46
898.359	2070.41
902.163	1886.18
905.965	1680.62
909.765	1303.95
913.564	1452.27
917.361	1584.69
921.156	1849.06
924.949	2226.07
928.74	2017.76
932.53	1576.61
936.318	988.43
940.104	721.473
943.889	578.8
947.672	593.966
951.453	562.729
955.232	679.606
959.01	504.642
962.785	681.822
966.559	916.995
970.332	1211
974.102	2025.51
977.871	3149.97
981.638	4364.91
985.404	4319.92
989.167	3004.92
992.929	1800.87
996.689	1045.92
1000.45	794.663
1004.2	630.474
1007.96	413.403
1011.71	299.413
1015.46	117.29
1019.21	218.173
1022.96	255.005
1026.71	372.001
1030.45	280.527
1034.19	187.807
1037.94	145.649
1041.68	213.176
1045.41	530.859
1049.15	458.92
1052.88	578.578
1056.62	716.949
1060.35	1025.44
1064.08	1664.14
1067.8	2653.1
1071.53	2952.4
1075.25	2531.74
1078.97	1894.41
1082.7	1624.07
1086.41	1913.88
1090.13	2344
1093.85	2384.54
1097.56	2184.96
1101.27	1095.88
1104.98	836.888
1108.69	508.031
1112.4	449.492
1116.1	170.86
1119.81	112.359
1123.51	365.994
1127.21	48.312
1130.91	41.594
1134.61	163.885
1138.3	116.177
1141.99	81.356
1145.68	44.046
1149.38	7.957
1153.06	139.565
1156.75	67.203
1160.43	91.079
1164.12	121.963
1167.8	136.378
1171.48	123.022
1175.16	31.416
1178.83	51.72
1182.51	5.834
1186.18	165.815
1189.85	108.654
1193.52	93.143
1197.19	34.463
1200.86	35.331
1204.52	127.179
1208.19	91.302
1211.85	159.837
1215.51	290.059
1219.17	310.312
1222.82	190.246
1226.48	281.712
1230.13	233.663
1233.78	107.237
1237.43	86.585
1241.08	175.476
1244.73	274.562
1248.37	213.348
1252.01	321.928
1255.66	361.081
1259.3	289.376
1262.93	167.875
1266.57	5.79
1270.21	103.537
1273.84	70.629
1277.47	147.238
1281.1	193.045
1284.73	320.546
1288.36	155.835
1291.98	9.633
1295.6	72.086
1299.23	29.752
1302.85	136.551
1306.46	11.817
1310.08	0.418
1313.7	27.835
1317.31	149.984
1320.92	110.379
1324.53	51.881
1328.14	112.688
1331.75	23.392
1335.35	15.248
1338.96	114.825
1342.56	164.199
1346.16	261.947
1349.76	271.089
1353.36	429.933
1356.95	288.462
1360.55	196.897
1364.14	146.181
1367.73	24.163
1371.32	18.29
1374.91	14.746
1378.49	143.32
1382.08	356.959
1385.66	300.282
1389.24	373.04
1392.82	405.935
1396.4	275.733
1399.97	365.254
1403.55	131.539
1407.12	176.011
1410.69	119.061
1414.26	334.658
1417.83	308.828
1421.4	425.913
1424.96	409.119
1428.53	296.12
1432.09	270.104
1435.65	291.232
1439.21	142.027
1442.76	64.685
1446.32	10.46
1449.87	192.251
1453.43	203.201
1456.98	272.246
1460.53	358.884
1464.07	404.675
1467.62	441.421
1471.16	308.993
1474.71	213.134
1478.25	220.955
1481.79	88.513
1485.32	202.264
1488.86	110.591
1492.39	108.699
1495.93	256.969
1499.46	199.839
1502.99	209.245
1506.52	199.444
1510.05	331.74
1513.57	144.85
1517.09	109.811
