Measurement: Raman, 514 nm, ccw, Raman Data Processed
Mineral: Zoisite
Rruff sample: R050038
Ideal chemistry: Ca_2_Al_3_(Si_2_O_7_)(SiO_4_)O(OH)
Locality: Elf Shooting Creek, Clay County, North Carolina, USA
Source: University of Arizona Mineral Museum
Description: Tan colored fragments of single crystals
Measured chemistry: (Ca_.998_Na_.002_)_2_(Al_.982_Fe^3+^_.018_)_3_(Si_.982_Fe^3+^_.018_)_3_O_12_(OH)
Pin_id: L00073
Orientation: Laser parallel to -b* (0 -1 0). Fiducial mark perpendicular to laser is parallel to c [0 0 1]
Raman shift (cm-1)	intensity
105.994	0
110.174	600.944
114.351	3052.13
118.527	8009.54
122.701	8267.08
126.873	3053.34
131.042	349.093
135.21	24.669
139.376	550.672
143.539	3162.88
147.701	7793.24
151.861	5800.2
156.018	2424
160.174	1127.7
164.327	700.019
168.479	828.35
172.628	1361.31
176.776	2184.15
180.922	3217.69
185.065	4870.76
189.207	6696.24
193.346	6800.32
197.484	4493.45
201.619	2558.88
205.753	1160.81
209.884	354.47
214.014	10.578
218.141	192.81
222.267	247.499
226.391	91.343
230.512	74.911
234.632	201.087
238.749	257.836
242.865	128.74
246.979	80.6
251.09	161.794
255.2	807.744
259.308	1675.42
263.414	1205.98
267.517	441.176
271.619	53.875
275.719	5.167
279.817	575.729
283.913	1033.02
288.007	1052.79
292.099	936.775
296.189	1079.4
300.277	2089.69
304.363	4959.03
308.447	10872.8
312.529	14303.9
316.609	9702.86
320.687	5129.9
324.764	3164.36
328.838	2474.82
332.91	2242.05
336.981	2525.66
341.049	3244.64
345.116	3741.41
349.18	2277.65
353.243	1162.21
357.304	586.4
361.362	371.016
365.419	300.177
369.474	279.252
373.527	400.89
377.578	356.631
381.627	319.847
385.674	144.758
389.719	272.409
393.762	595.069
397.804	1010.13
401.843	1478.82
405.881	2659.56
409.916	4382.66
413.95	5138.26
417.981	5888.71
422.011	5506.12
426.039	4853.78
430.065	5596.24
434.089	6231.01
438.111	5821.67
442.131	4520.07
446.149	3413.73
450.166	2878.98
454.18	3422.67
458.193	2549.18
462.203	1358.38
466.212	1537.99
470.219	2466.3
474.224	4042.15
478.227	5659.33
482.228	8863.1
486.227	16850.2
490.224	25644
494.22	20875.7
498.213	10517.1
502.205	5218.4
506.194	3199.52
510.182	2190.52
514.168	2131.41
518.152	2679.02
522.134	3813.29
526.114	5116.26
530.093	4658.88
534.069	3402.63
538.044	2187.4
542.017	1382.22
545.987	784.873
549.956	529.665
553.923	489.115
557.889	491.254
561.852	684.219
565.813	1068.06
569.773	1177.99
573.731	1067.57
577.686	732.588
581.64	607.577
585.593	862.51
589.543	1937.94
593.491	4507.59
597.438	4566.28
601.382	1854.58
605.325	644.643
609.266	166.438
613.205	70.319
617.142	66.308
621.078	122.078
625.011	23.737
628.943	21.777
632.872	77.532
636.8	89.157
640.726	41.377
644.651	36.205
648.573	168.899
652.494	284.636
656.412	131.54
660.329	144.37
664.244	288.126
668.157	552.316
672.069	1064.95
675.978	1487.54
679.886	1380.14
683.792	982.761
687.696	905.418
691.598	1118.1
695.498	1120.79
699.397	799.282
703.293	426.197
707.188	428.925
711.081	331.615
714.972	454.224
718.862	586.732
722.749	749.129
726.635	831.402
730.519	433.548
734.401	155.562
738.281	107.445
742.16	49.199
746.036	10.809
749.911	3.592
753.784	53.179
757.655	6.172
761.525	44.201
765.392	34.329
769.258	63.822
773.122	39.878
776.984	0.873
780.844	35.615
784.703	49.791
788.56	73.055
792.415	24.273
796.268	35.859
800.119	113.274
803.969	96.192
807.816	10.716
811.662	367.439
815.506	4.075
819.349	50.624
823.189	87.079
827.028	243.447
830.865	469.765
834.7	436.062
838.534	512.336
842.365	448.569
846.195	604.758
850.023	596.411
853.85	917.051
857.674	1403.15
861.497	2049.22
865.318	3381.85
869.137	5531.32
872.955	6367.34
876.77	4533.36
880.584	3239.38
884.396	3045.42
888.207	2961.49
892.015	2817.58
895.822	2243.45
899.627	2027.71
903.43	1678.48
907.232	1383.66
911.032	1534.64
914.83	1448.65
918.626	1778.35
922.42	2320.98
926.213	2549.43
930.004	1942.16
933.793	1215.17
937.581	761.398
941.366	770.927
945.15	705.92
948.932	585.23
952.713	575.005
956.491	557.463
960.268	759.139
964.044	803.892
967.817	1142.64
971.589	1590.82
975.359	2388.54
979.127	3747.91
982.893	4778.57
986.658	4041.5
990.421	2761.68
994.183	1791.82
997.942	1102.24
1001.7	814.179
1005.46	484.921
1009.21	525.994
1012.96	378.639
1016.71	380.462
1020.46	272.858
1024.21	155.309
1027.96	238.234
1031.7	211.299
1035.44	287.508
1039.18	440.952
1042.92	514.59
1046.66	639.307
1050.39	847.044
1054.13	591.336
1057.86	735.987
1061.59	1390.92
1065.32	2086.11
1069.05	3151.57
1072.77	3297.29
1076.49	2253.5
1080.22	1779.78
1083.94	1646.3
1087.65	2293.07
1091.37	2708.59
1095.09	2457.5
1098.8	1685.19
1102.51	1043.12
1106.22	631.588
1109.93	360.883
1113.63	279.536
1117.34	308.353
1121.04	297.323
1124.74	46.449
1128.44	85.765
1132.14	74.745
1135.84	85.736
1139.53	56.536
1143.22	87.087
1146.91	62.882
1150.61	151.468
1154.29	161.83
1157.98	51.613
1161.66	42.593
1165.35	12.743
1169.03	104.662
1172.71	173.884
1176.38	330.382
1180.06	244.801
1183.73	218.922
1187.41	29.319
1191.08	20.501
1194.75	30.189
1198.41	120.047
1202.08	170.196
1205.74	261.325
1209.41	292.691
1213.07	194.579
1216.73	134.437
1220.38	5.183
1224.04	67.033
1227.69	57.708
1231.35	310.303
1235	330.938
1238.65	373.814
1242.3	283.724
1245.94	133.123
1249.59	22.66
1253.23	12.359
1256.87	141.691
1260.51	180.999
1264.15	240.15
1267.78	309.214
1271.42	217.946
1275.05	447.119
1278.68	302.027
1282.31	22.164
1285.94	39.187
1289.56	106.214
1293.19	81.562
1296.81	218.247
1300.43	174.665
1304.05	119.573
1307.67	154.574
1311.29	69.616
1314.9	94.797
1318.52	50.302
1322.13	123.696
1325.74	287.524
1329.34	178.148
1332.95	261.434
1336.56	243.582
1340.16	265.003
1343.76	105.321
1347.36	37.717
1350.96	29.897
1354.56	21.868
1358.15	183.641
1361.74	145.662
1365.34	366.969
1368.93	408.361
1372.52	240.22
1376.1	341.403
1379.69	6.622
1383.27	87.137
1386.85	253.524
1390.43	148.456
1394.01	114.362
1397.59	310.036
1401.17	374.073
1404.74	497.78
1408.31	351.265
1411.88	236.828
1415.45	303.35
1419.02	206.332
1422.59	43.808
1426.15	104.812
1429.71	264.33
1433.28	253.442
1436.84	340.786
1440.39	444.056
1443.95	440.96
1447.5	443.337
1451.06	292.879
1454.61	261.47
1458.16	186.341
1461.71	199.317
1465.26	101.656
1468.8	183.453
1472.34	155.166
1475.89	257.963
1479.43	402.247
1482.97	426.106
1486.5	458.931
1490.04	403.155
1493.57	257.747
1497.11	252.968
1500.64	9.677
1504.17	99.112
1507.69	60.086
1511.22	5.687
1514.74	86.062
1518.27	309.399
1521.79	0
