Measurement: Raman, 514 nm, ccw, Raman Data Processed
Mineral: Zoisite
Rruff sample: R050038
Ideal chemistry: Ca_2_Al_3_(Si_2_O_7_)(SiO_4_)O(OH)
Locality: Elf Shooting Creek, Clay County, North Carolina, USA
Source: University of Arizona Mineral Museum
Description: Tan colored fragments of single crystals
Measured chemistry: (Ca_.998_Na_.002_)_2_(Al_.982_Fe^3+^_.018_)_3_(Si_.982_Fe^3+^_.018_)_3_O_12_(OH)
Pin_id: M00498
Orientation: Laser parallel to c* (0 0 1). Fiducial mark perpendicular to laser is parallel to a [1 0 0]
Raman shift (cm-1)	intensity
103.843	0
108.033	540.448
112.22	4356.89
116.406	1984.51
120.589	627.07
124.77	367.754
128.949	537.945
133.126	500.811
137.301	580.619
141.473	761.726
145.644	841.288
149.812	554.525
153.979	305.943
158.143	20.246
162.305	162.19
166.465	413.666
170.623	756.367
174.778	911.077
178.932	899.244
183.083	1134.46
187.233	1391
191.38	1440.02
195.525	1007.43
199.669	536.195
203.81	327.286
207.949	70.161
212.085	122.544
216.22	78.53
220.353	19.959
224.483	169.5
228.612	137.668
232.738	162.352
236.863	111.758
240.985	106.996
245.105	20.199
249.223	368.691
253.339	837.447
257.453	1399.34
261.565	1572.15
265.675	293.015
269.783	23.063
273.888	17.531
277.992	121.766
282.093	321.375
286.193	266.875
290.29	171.469
294.386	252.762
298.479	424.59
302.57	876.438
306.659	1568.17
310.746	1950.8
314.831	1520
318.914	1126.55
322.995	958.42
327.074	1225.76
331.151	1859.15
335.226	2755.59
339.299	4472.67
343.37	6381.03
347.438	4715.91
351.505	2600.65
355.57	1330.9
359.632	835.638
363.693	556.04
367.751	399.465
371.808	232.045
375.862	144.528
379.914	175.853
383.965	137.905
388.013	269.238
392.06	339.819
396.104	289.483
400.146	128.246
404.186	148.976
408.225	256.223
412.261	562.256
416.295	836.95
420.327	1266.14
424.357	1912.28
428.386	776.336
432.412	798.581
436.436	728.291
440.458	561.652
444.478	431.023
448.496	402.628
452.513	420.374
456.527	369.3
460.539	491.57
464.549	813.696
468.557	1542.39
472.563	2784.03
476.567	3225.82
480.57	4046.51
484.57	6485.15
488.568	10179.1
492.564	10604.9
496.558	4562.49
500.551	2353.94
504.541	1474.34
508.529	1054.62
512.515	879.708
516.5	1016.54
520.482	1364.15
524.462	1756.18
528.441	1620.65
532.417	1103.73
536.391	695.852
540.364	700.655
544.334	679.524
548.303	883.01
552.269	1026.42
556.234	1537.34
560.197	2238.04
564.157	3872.85
568.116	5439.97
572.073	4740.06
576.027	2829.58
579.98	1489.06
583.931	859.661
587.88	879.012
591.827	1275.7
595.772	1541.51
599.715	712.943
603.656	204.119
607.595	116.113
611.532	174.451
615.468	552.202
619.401	1326.24
623.332	1755.45
627.262	1374.69
631.189	599.941
635.115	266.206
639.039	79.504
642.96	174.59
646.88	257.816
650.798	438.582
654.714	476.645
658.628	631.052
662.54	775.256
666.45	1211.26
670.358	2406.49
674.264	3741.3
678.169	3642.88
682.071	2226.53
685.972	1341.29
689.87	873.187
693.767	615.221
697.662	414.394
701.555	138.701
705.446	74.117
709.335	55.59
713.222	58.918
717.107	17.469
720.99	24.036
724.872	30.72
728.751	26.534
732.629	124.61
736.504	37.115
740.378	44.988
744.25	35.257
748.12	18.184
751.988	131.388
755.854	164.489
759.719	264.508
763.581	471.45
767.442	568.312
771.3	711.086
775.157	725.771
779.012	668.36
782.865	515.853
786.716	256.25
790.565	135.548
794.413	60.715
798.258	7.244
802.102	89.521
805.943	58.305
809.783	16.582
813.621	8.31
817.457	0.432
821.292	33.799
825.124	54.086
828.954	173.843
832.783	262.679
836.61	342.439
840.435	426.178
844.258	534.828
848.079	681.4
851.898	957.888
855.715	1368.28
859.531	1915.5
863.345	2886.29
867.157	4768.68
870.967	6171.25
874.775	4572.01
878.581	2966.64
882.386	2514.02
886.188	2455.09
889.989	2568.28
893.788	2632.6
897.585	2806.17
901.38	3204.08
905.174	3671.45
908.965	4622.99
912.755	6446.53
916.543	9040.02
920.329	13293.5
924.113	17056.9
927.895	14850.3
931.676	9143.64
935.454	5386.95
939.231	3477.23
943.006	2444.49
946.78	1996.52
950.551	1557
954.32	1348.55
958.088	1344.19
961.854	1355.2
965.618	1201.94
969.38	1324.94
973.141	1840.11
976.9	2679.16
980.656	3560.47
984.411	3526.51
988.165	2292.02
991.916	1366.64
995.665	868.792
999.413	611.407
1003.16	398.354
1006.9	338.239
1010.65	241.771
1014.39	163.939
1018.12	141.764
1021.86	143.715
1025.6	234.196
1029.33	213.924
1033.06	346.529
1036.79	295.219
1040.52	445.34
1044.25	512.473
1047.97	561.293
1051.69	477.832
1055.41	442.521
1059.13	556.123
1062.85	818.856
1066.57	1096.8
1070.28	1171.69
1073.99	1055.76
1077.7	1002.79
1081.41	1164.44
1085.12	1593.59
1088.82	2194.34
1092.52	2214.26
1096.22	1506.19
1099.92	981.25
1103.62	674.494
1107.32	534.25
1111.01	378.136
1114.7	259.157
1118.39	151.384
1122.08	143.836
1125.77	81.151
1129.45	97.108
1133.14	46.643
1136.82	36.935
1140.5	95.364
1144.18	16.293
1147.85	44.932
1151.53	21.439
1155.2	28.509
1158.87	23.052
1162.54	47.649
1166.21	36.434
1169.88	29.895
1173.54	100.677
1177.2	86.734
1180.86	77.389
1184.52	52.05
1188.18	84.593
1191.83	19.109
1195.49	57.541
1199.14	95.874
1202.79	112.195
1206.44	29.168
1210.08	41.83
1213.73	36.331
1217.37	74.71
1221.01	45.18
1224.65	87.382
1228.29	133.152
1231.93	86.16
1235.56	47.633
1239.19	26.773
1242.83	78.604
1246.46	47.697
1250.08	95.311
1253.71	30.555
1257.33	85.764
1260.96	84.904
1264.58	85.617
1268.19	73.104
1271.81	77.996
1275.43	44.305
1279.04	71.286
1282.65	21.663
1286.27	82.193
1289.87	80.558
1293.48	40.073
1297.09	68.731
1300.69	97.004
1304.29	33.726
1307.89	80.897
1311.49	114.933
1315.09	89.674
1318.68	73.035
1322.28	53.226
1325.87	117.794
1329.46	163.16
1333.05	44.085
1336.63	170.832
1340.22	90.394
1343.8	64.97
1347.38	108.178
1350.96	105.286
1354.54	144.22
1358.12	237.739
1361.69	78.391
1365.26	156.864
1368.83	41.208
1372.4	44.174
1375.97	109.857
1379.54	67.328
1383.1	97.393
1386.66	88.016
1390.23	112.617
1393.79	173.317
1397.34	116.693
1400.9	104.079
1404.45	106.618
1408.01	3.656
1411.56	19.515
1415.11	72.704
1418.66	159.391
1422.2	123.014
1425.75	169.86
1429.29	103.063
1432.83	141.217
1436.37	85.307
1439.91	110.909
1443.44	84.899
1446.98	124.623
1450.51	66.61
1454.04	121.428
1457.57	207.3
1461.1	152.662
1464.63	172.177
1468.15	152.704
1471.67	113.294
1475.19	50.2
1478.71	128.341
1482.23	34.573
1485.75	100.95
1489.26	7.185
1492.78	63.469
1496.29	98.915
1499.8	109.825
1503.31	183.207
1506.81	146.806
1510.32	134.895
1513.82	0
