Measurement: Raman, 514 nm, ccw, Raman Data Processed
Mineral: Zoisite
Rruff sample: R050041
Ideal chemistry: Ca_2_Al_3_(Si_2_O_7_)(SiO_4_)O(OH)
Locality: Franklin County, Conway, Massachussetts, USA
Source: University of Arizona Mineral Museum
Description: Tan colored fragment
Measured chemistry: (Ca_.993_Mg_.004_Na_.002_Mn_.001_)_2_(Al_.980_Fe^3+^_.020_)_3_(Si_.986_Fe^3+^_.014_)_3_O_12_(OH)
Pin_id: M00473
Orientation: Laser parallel to a* (1 0 0). Fiducial mark perpendicular to laser is parallel to b [0 1 0]
Raman shift (cm-1)	intensity
116.406	0
119.195	325.191
121.983	556.963
124.77	131.314
127.556	8.984
130.342	47.23
133.126	135.095
135.909	271.687
138.692	325.132
141.473	424.034
144.254	667.345
147.034	954.289
149.812	794.308
152.59	647.206
155.367	342.621
158.143	330.167
160.918	239.488
163.692	210.293
166.465	322.396
169.237	375.642
172.008	389.911
174.778	265.112
177.548	271.166
180.316	478.072
183.083	496.428
185.85	777.135
188.616	798.262
191.38	769.785
194.144	621.691
196.907	693.943
199.669	596.484
202.429	398.873
205.189	491.297
207.949	383.861
210.707	876.684
213.464	729.773
216.22	853.059
218.976	446.559
221.73	380.291
224.483	194.262
227.236	368.475
229.988	332.932
232.738	297.635
235.488	172.582
238.237	307.77
240.985	213.695
243.732	271.717
246.478	355.525
249.223	426.365
251.967	436.01
254.711	663.092
257.453	968.773
260.195	1024.69
262.935	970.844
265.675	608.812
268.414	555.361
271.151	582.109
273.888	729.055
276.624	616.195
279.359	723.531
282.093	745.93
284.827	645.357
287.559	536.438
290.29	470.766
293.021	265.393
295.75	241.229
298.479	435.795
301.207	283.973
303.933	461.143
306.659	719.377
309.384	935.764
312.108	1022.5
314.831	779.547
317.554	526.914
320.275	424.547
322.995	172.426
325.715	330.545
328.434	568.889
331.151	667.441
333.868	986.188
336.584	1175.12
339.299	1524.23
342.013	1943.51
344.726	2462.95
347.438	2342.54
350.15	1692.27
352.86	912.209
355.57	532.186
358.278	132.283
360.986	322.496
363.693	182.82
366.399	6.742
369.104	36.193
371.808	74.457
374.511	114.787
377.213	73.994
379.914	83.178
382.615	212.146
385.315	8.324
388.013	225.617
390.711	466.664
393.408	688.984
396.104	590.303
398.799	461.719
401.493	73.248
404.186	134.896
406.879	226.666
409.57	21.512
412.261	330.242
414.951	361.822
417.639	493.477
420.327	635.258
423.014	437.174
425.7	299.217
428.386	211.416
431.07	463.709
433.753	336.088
436.436	548.545
439.118	261.1
441.798	343.746
444.478	246.506
447.157	129.527
449.835	27.436
452.513	14.316
455.189	11.111
457.864	92.16
460.539	44.48
463.212	1.092
465.885	27.646
468.557	345.826
471.228	639.375
473.898	662.99
476.567	1039.68
479.236	1143.44
481.903	1557.27
484.57	2071.59
487.235	3336.59
489.9	4431.38
492.564	4545.57
495.227	3449.91
497.889	2234.36
500.551	1118.87
503.211	763.438
505.87	558.23
508.529	353.059
511.187	368.033
513.844	223.066
516.5	398.146
519.155	203.277
521.809	618.434
524.462	513.232
527.115	748.047
529.766	681.824
532.417	507.068
535.067	326.006
537.716	103.309
540.364	16.406
543.011	54.789
545.657	274.193
548.303	488.059
550.947	396.289
553.591	219.121
556.234	394.49
558.876	632.588
561.517	512.021
564.157	772.641
566.797	1509.77
569.435	2148.82
572.073	2335.76
574.709	2002.07
577.345	1351.82
579.98	678.746
582.614	593.596
585.248	389.82
587.88	205.518
590.511	332.695
593.142	599.312
595.772	697.92
598.401	642.943
601.029	622.674
603.656	137.666
606.282	143.176
608.908	96.033
611.532	190.631
614.156	134.09
616.779	308.371
619.401	470.023
622.022	603.76
624.642	765.633
627.262	540.254
629.88	374.828
632.498	249.354
635.115	245.838
637.731	130.359
640.346	64.992
642.96	2.646
645.574	11.381
648.186	216.094
650.798	106.859
653.409	129.297
656.019	208.373
658.628	294.82
661.236	300.674
663.843	274.324
666.45	720.703
669.056	907.916
671.66	1013.8
674.264	1819.36
676.868	1982.57
679.47	1876.23
682.071	1419.3
684.672	1092.79
687.271	695.688
689.87	456.715
692.468	391.141
695.065	523.809
697.662	386.266
700.257	365.945
702.852	338.518
705.446	8.039
708.038	69.592
710.631	151.408
713.222	93.432
715.812	405.43
718.402	367.295
720.99	249.002
723.578	340.535
726.165	81.932
728.751	263.168
731.336	404.289
733.921	505.25
736.504	93.953
739.087	176.555
741.669	156.852
744.25	46.93
746.83	76.859
749.41	306.648
751.988	506.293
754.566	14.207
757.143	375.09
759.719	514.941
762.294	483.219
764.868	102.168
767.442	341
770.014	709.727
772.586	338.348
775.157	476.867
777.727	605.293
780.297	513.625
782.865	429.973
785.433	529.957
787.999	647.953
790.565	262.797
793.13	250.508
795.695	61.902
798.258	174.172
800.821	370.5
803.382	417.406
805.943	65.871
808.504	19.469
811.063	136.715
813.621	422.754
816.179	378.484
818.736	273.914
821.292	139.117
823.847	354.059
826.401	358.844
828.954	373.469
831.507	197.961
834.059	312.402
836.61	236.73
839.16	310.941
841.709	395.035
844.258	559.027
846.805	532.906
849.352	696.672
851.898	830.312
854.443	991.688
856.988	1029.23
859.531	1729.89
862.074	1375.68
864.616	1928.71
867.157	2154.27
869.697	2825.02
872.236	3101.5
874.775	2668.88
877.313	1902.79
879.849	1879.4
882.386	1553.46
884.921	1544.78
887.455	1333.39
889.989	1304.54
892.522	1636.27
895.054	1217.11
897.585	1526.85
900.115	1587.26
902.645	1578.97
905.174	1937.68
907.701	2204.09
910.229	2305.64
912.755	2517.11
915.28	3127.95
917.805	3228.1
920.329	4309.41
922.852	5180.68
925.374	6861.89
927.895	7103.05
930.416	6064.17
932.936	4095.16
935.454	2656.03
937.973	2016.73
940.49	2057.1
943.006	1305.22
945.522	1205.16
948.037	1217.3
950.551	906.684
953.064	1037.23
955.577	816.551
958.088	621.598
960.599	635.879
963.109	724.652
965.618	314.48
968.127	692.07
970.634	761.559
973.141	1038.23
975.647	1005.17
978.152	1442.23
980.656	1689.62
983.16	1716.68
985.663	1816.37
988.165	1645.68
990.666	935.113
993.166	714.844
995.665	534.184
998.164	333.004
1000.66	431.508
1003.16	449.801
1005.65	188.234
1008.15	188.281
1010.65	68.312
1013.14	178.129
1015.63	277.781
1018.12	517.418
1020.62	113.031
1023.11	266.57
1025.6	266.344
1028.09	386.191
1030.57	23.98
1033.06	135.887
1035.55	195.723
1038.03	635.512
1040.52	1005.23
1043	274.887
1045.49	474.473
1047.97	943.996
1050.45	1083.53
1052.93	353.191
1055.41	623.145
1057.89	433.488
1060.37	1124.04
1062.85	1125.23
1065.33	1326.91
1067.8	1818.83
1070.28	2038.16
1072.75	1982.71
1075.23	1634.82
1077.7	1227.09
1080.17	1299.18
1082.64	1072.8
1085.12	1104.97
1087.59	1750.48
1090.05	2191.19
1092.52	2618.02
1094.99	1608.14
1097.46	1385.52
1099.92	995.605
1102.39	745.703
1104.85	675.789
1107.32	275.801
1109.78	505.629
1112.24	1145.14
1114.7	174.246
1117.16	152.836
1119.62	232.176
1122.08	774.406
1124.54	608.301
1127	253.152
1129.45	498.809
1131.91	315.516
1134.37	301.023
1136.82	209.805
1139.27	573.395
1141.72	494.629
1144.18	12.078
1146.63	106.809
1149.08	222.309
1151.53	835.98
