Measurement: Raman, 514 nm, ccw, Raman Data Processed
Mineral: Zoisite
Rruff sample: R050041
Ideal chemistry: Ca_2_Al_3_(Si_2_O_7_)(SiO_4_)O(OH)
Locality: Franklin County, Conway, Massachussetts, USA
Source: University of Arizona Mineral Museum
Description: Tan colored fragment
Measured chemistry: (Ca_.993_Mg_.004_Na_.002_Mn_.001_)_2_(Al_.980_Fe^3+^_.020_)_3_(Si_.986_Fe^3+^_.014_)_3_O_12_(OH)
Pin_id: L00503
Orientation: Laser parallel to -c* (0 0 -1). Fiducial mark perpendicular to laser is parallel to a [1 0 0]
Raman shift (cm-1)	intensity
108.444	0
111.223	0.205
114.002	201.816
116.78	426.785
119.556	279.459
122.332	325.064
125.107	172.721
127.882	92.814
130.655	174.945
133.427	78.797
136.199	45.885
138.97	202.207
141.74	219.756
144.509	408.311
147.277	337.777
150.044	218.111
152.81	319.195
155.576	240.912
158.341	143.236
161.105	176.066
163.867	219.367
166.63	16.885
169.391	127.283
172.151	61.854
174.911	96.816
177.669	122.213
180.427	217.977
183.184	314.123
185.94	470.65
188.696	328.102
191.45	375.252
194.204	452.51
196.956	449.857
199.708	307.318
202.459	194.916
205.209	293.355
207.958	111.215
210.707	199.295
213.454	227.549
216.201	255.986
218.947	264.617
221.692	163.434
224.436	192.443
227.179	131.65
229.922	211.057
232.663	223.666
235.404	210.453
238.144	170.441
240.883	160.623
243.621	322.365
246.359	292.904
249.095	263.637
251.831	315.238
254.566	296.479
257.299	428.906
260.033	410.494
262.765	364.074
265.496	264.217
268.227	23.646
270.957	278.68
273.685	159.168
276.413	8.086
279.141	157.398
281.867	346.961
284.592	246.766
287.317	186.625
290.041	446.66
292.764	236.963
295.486	9.324
298.207	30.602
300.928	138.273
303.647	279.469
306.366	343.23
309.084	644.816
311.801	416.59
314.517	288.545
317.233	450.73
319.947	373.09
322.661	465.611
325.374	288.326
328.086	411.229
330.797	474.01
333.508	558.092
336.217	650.615
338.926	806.373
341.634	1007.77
344.341	1201.56
347.047	815.475
349.753	489.52
352.457	253.688
355.161	437.975
357.864	302.387
360.566	136.92
363.267	181.582
365.967	96.359
368.667	191.254
371.366	466.27
374.064	181.402
376.761	16.822
379.457	12.188
382.152	137.666
384.847	153.262
387.541	158.975
390.233	420.549
392.926	33.52
395.617	184.389
398.307	170.574
400.997	26.9
403.686	253.363
406.374	319.959
409.061	116.674
411.747	303.492
414.433	390.43
417.117	477.533
419.801	374.816
422.484	292.223
425.166	119.895
427.848	207.658
430.528	245.221
433.208	433.174
435.887	381.219
438.565	359.389
441.242	297.67
443.918	316.939
446.594	415.449
449.269	494.068
451.943	252.797
454.616	451.633
457.288	9.445
459.96	39.16
462.631	338.285
465.3	397.529
467.969	146.85
470.638	436.242
473.305	539.627
475.972	543.045
478.638	582.713
481.303	623.414
483.967	983.275
486.63	1701.64
489.293	1621.65
491.954	1615.16
494.615	1225.36
497.275	785.617
499.935	406
502.593	316.459
505.251	297.023
507.908	327.693
510.564	328.43
513.219	49.238
515.873	180.113
518.527	71.055
521.18	452.057
523.832	413.125
526.483	494.262
529.133	245.479
531.783	276.799
534.431	187.08
537.079	328.545
539.727	250.062
542.373	151.631
545.018	43.248
547.663	135.086
550.307	276.523
552.95	52.318
555.592	233.828
558.234	259.391
560.875	201.139
563.514	849.951
566.154	775.332
568.792	1067.19
571.429	871.742
574.066	623.656
576.702	651.793
579.337	409.32
581.971	412.416
584.605	124.475
587.237	166.492
589.869	369.66
592.5	381.707
595.13	593.764
597.76	245.834
600.389	2.09
603.016	139.973
605.644	122.039
608.27	284.109
610.895	126.182
613.52	128.256
616.144	138.404
618.767	360.475
621.389	183.912
624.011	195.975
626.631	105.666
629.251	7.717
631.87	79.742
634.489	81.697
637.106	4.398
639.723	36.248
642.339	121.77
644.954	199.898
647.568	37.227
650.182	414.574
652.795	216.73
655.407	284.277
658.018	196.35
660.628	167.799
663.238	347.812
665.847	349.246
668.455	421.451
671.062	682.963
673.668	1114.46
676.274	935.771
678.879	707.68
681.483	350.32
684.086	431.531
686.689	557.613
689.29	314.676
691.891	377.434
694.491	118.316
697.091	429.387
699.689	130.625
702.287	201.711
704.884	286.898
707.48	257.844
710.076	156.895
712.67	627.727
715.264	138.438
717.857	80.93
720.45	10.469
723.041	149.875
725.632	340.172
728.222	350.41
730.811	209.418
733.4	39.574
735.987	20.18
738.574	259.68
741.16	358.969
743.745	308.203
746.33	177.383
748.913	426.504
751.496	305.57
754.079	234.586
756.66	372.68
759.241	391.586
761.82	270.449
764.399	419.258
766.978	288.008
769.555	296.707
772.132	375.363
774.708	613.969
777.283	392.512
779.857	410.977
782.431	359.406
785.004	265.75
787.576	265.418
790.147	200.344
792.718	213.891
795.288	92.012
797.857	241.656
800.425	29.688
802.992	74.227
805.559	62.125
808.125	119.949
810.69	297.695
813.254	285.336
815.818	96.832
818.381	240.578
820.943	77.961
823.504	395.266
826.065	302.535
828.624	229.734
831.183	46.863
833.741	443.852
836.299	470.777
838.856	42.359
841.412	59.473
843.967	11.09
846.521	417.699
849.075	444.262
851.628	83.457
854.18	109.926
856.731	216.387
859.281	751.012
861.831	900.207
864.38	616.613
866.929	1008.47
869.476	1671.14
872.023	1309.7
874.569	972.383
877.114	918.59
879.658	464.805
882.202	611.055
884.745	380.98
887.287	277.676
889.829	551.758
892.369	718.695
894.909	424.676
897.448	451.984
899.987	476.863
902.524	732.859
905.061	708.855
907.597	444.855
910.133	660.859
912.667	826.84
915.201	1342.8
917.734	1798.54
920.267	2094.24
922.798	2459.94
925.329	3055.64
927.859	2921.3
930.388	2635.46
932.917	1350.89
935.445	1206.29
937.972	671.652
940.498	597.012
943.024	632.418
945.548	837.008
948.072	812.438
950.596	907.902
953.118	622.219
955.64	368.094
958.161	483.418
960.681	909.18
963.201	739.148
965.72	44.68
968.238	332.613
970.755	212.223
973.272	455.035
975.787	740.859
978.302	506.27
980.817	680.812
983.33	1115.05
985.843	1198.94
988.355	404.227
990.866	299.582
993.377	684.891
995.887	510.223
998.396	275.672
1000.9	58.75
1003.41	136.797
1005.92	82.668
1008.42	151.109
1010.93	64.781
1013.43	381.566
1015.94	97.918
1018.44	44.285
1020.94	40.672
1023.45	447.086
1025.95	563.543
1028.45	90.07
1030.95	63.348
1033.44	273.305
1035.94	450.031
1038.44	406.848
1040.94	173.742
1043.43	350.848
1045.93	857.703
1048.42	925.199
1050.91	312.859
1053.41	720.977
1055.9	739.52
1058.39	828.305
1060.88	577.348
1063.37	269.789
1065.86	586.961
1068.35	557.52
1070.84	665.199
1073.32	512.918
1075.81	721.363
1078.29	890.523
1080.78	516.227
1083.26	563.23
1085.75	704.727
1088.23	1041.03
1090.71	1236.86
1093.19	272.484
1095.67	80.363
1098.15	538.344
1100.63	377.652
1103.11	323.059
1105.59	334.887
1108.06	442.617
1110.54	542.234
1113.01	260.371
1115.49	246.945
1117.96	3.758
1120.43	0
