Measurement: Raman, 514 nm, ccw, Raman Data Processed
Mineral: Zoisite
Rruff sample: R050041
Ideal chemistry: Ca_2_Al_3_(Si_2_O_7_)(SiO_4_)O(OH)
Locality: Franklin County, Conway, Massachussetts, USA
Source: University of Arizona Mineral Museum
Description: Tan colored fragment
Measured chemistry: (Ca_.993_Mg_.004_Na_.002_Mn_.001_)_2_(Al_.980_Fe^3+^_.020_)_3_(Si_.986_Fe^3+^_.014_)_3_O_12_(OH)
Pin_id: M00473
Orientation: Laser parallel to a* (1 0 0). Fiducial mark perpendicular to laser is parallel to b [0 1 0]
Raman shift (cm-1)	intensity
116.406	0
120.589	1192.09
124.77	556.421
128.949	262.753
133.126	74.19
137.301	277.7
141.473	746.775
145.644	2001.69
149.812	2278.03
153.979	1012.43
158.143	323.229
162.305	128.96
166.465	128.54
170.623	88.646
174.778	76.935
178.932	141.521
183.083	323.615
187.233	989.738
191.38	1007.08
195.525	875.508
199.669	644.941
203.81	304.287
207.949	383.783
212.085	774.113
216.22	875.293
220.353	487.158
224.483	199.756
228.612	133.018
232.738	67.033
236.863	81.818
240.985	19.754
245.105	332.121
249.223	395.016
253.339	681.396
257.453	1197.53
261.565	1324.35
265.675	1217.58
269.783	860.078
273.888	858.91
277.992	938.371
282.093	1361.86
286.193	1267.85
290.29	778.131
294.386	461.064
298.479	435.869
302.57	481.426
306.659	1021.99
310.746	1870.31
314.831	1679.5
318.914	849.74
322.995	380.85
327.074	792.783
331.151	1523.81
335.226	2104.81
339.299	1897.85
343.37	1692.07
347.438	1416.76
351.505	671.885
355.57	257.402
359.632	103.312
363.693	40.434
367.751	186.092
371.808	87.074
375.862	60.057
379.914	12.844
383.965	42.4
388.013	252.375
392.06	720.471
396.104	778.934
400.146	395.986
404.186	264.553
408.225	513.863
412.261	1023.08
416.295	1612.27
420.327	2231.72
424.357	1521.49
428.386	1081.69
432.412	1702.24
436.436	1703.09
440.458	1404.24
444.478	915.674
448.496	707.557
452.513	449.838
456.527	548.098
460.539	61.076
464.549	94.279
468.557	327.539
472.563	671.025
476.567	1397.6
480.57	1899.75
484.57	3453.69
488.568	6704.4
492.564	7829.89
496.558	4995.38
500.551	2321.31
504.541	1177.56
508.529	784
512.515	450.584
516.5	627.297
520.482	784.127
524.462	1091.69
528.441	1571.68
532.417	1232.97
536.391	957.082
540.364	505.879
544.334	557.031
548.303	623.088
552.269	205.945
556.234	413.635
560.197	560.828
564.157	835.74
568.116	1933.53
572.073	2561.36
576.027	1829.33
579.98	618.051
583.931	269.074
587.88	123.289
591.827	455.326
595.772	1456.79
599.715	905.504
603.656	84.439
607.595	112.973
611.532	52.23
615.468	281.092
619.401	600.381
623.332	408.693
627.262	432.988
631.189	250.281
635.115	220.453
639.039	119.811
642.96	19.25
646.88	58.215
650.798	226.771
654.714	492.777
658.628	320.527
662.54	532.65
666.45	477.84
670.358	854.029
674.264	1958.82
678.169	2363.42
682.071	1477.91
685.972	842.258
689.87	706.535
693.767	400.797
697.662	434.992
701.555	0.984
705.446	42.789
709.335	416.244
713.222	80.559
717.107	47.822
720.99	304.502
724.872	386.645
728.751	318.674
732.629	110.49
736.504	22.059
740.378	186.688
744.25	73.918
748.12	244.225
751.988	284.213
755.854	143.895
759.719	153.311
763.581	222.463
767.442	141.068
771.3	234.352
775.157	272.691
779.012	370.855
782.865	348.875
786.716	236.66
790.565	91.344
794.413	210.398
798.258	5.734
802.102	282.766
805.943	17.457
809.783	217.355
813.621	391.516
817.457	375.199
821.292	198.629
825.124	251.844
828.954	404.852
832.783	477.676
836.61	670.324
840.435	922.793
844.258	885.078
848.079	1047.27
851.898	1059.33
855.715	1391.96
859.531	2091.66
863.345	1920.06
867.157	2412.3
870.967	3516.21
874.775	2727.46
878.581	2087.25
882.386	2151.86
886.188	2191.86
889.989	2149.43
893.788	2034.02
897.585	1932.56
901.38	2020.36
905.174	2097.01
908.965	2495.8
912.755	2414.79
916.543	2234.32
920.329	2812.03
924.113	4031.11
927.895	4248.98
931.676	3378.45
935.454	2247.97
939.231	1687.45
943.006	1472.79
946.78	1890.94
950.551	1102.87
954.32	1083.98
958.088	607.824
961.854	1011.24
965.618	788.934
969.38	811.875
973.141	1461.57
976.9	2220.13
980.656	2919.95
984.411	3741.03
988.165	2790.98
991.916	1474.5
995.665	971.254
999.413	671.02
1003.16	571.328
1006.9	46.59
1010.65	67.258
1014.39	358.617
1018.12	510.816
1021.86	114.906
1025.6	126.543
1029.33	102.285
1033.06	108.445
1036.79	9.105
1040.52	589.293
1044.25	859.137
1047.97	998.82
1051.69	1319.31
1055.41	968.559
1059.13	1528.82
1062.85	2849.17
1066.57	4399.62
1070.28	6850.11
1073.99	5550.74
1077.7	3802.02
1081.41	2714.52
1085.12	2638.11
1088.82	3592.2
1092.52	4806.57
1096.22	3361.17
1099.92	1965.95
1103.62	1260.75
1107.32	655.648
1111.01	360.734
1114.7	381.031
1118.39	639.363
1122.08	724.109
1125.77	239.367
1129.45	385.07
1133.14	61.293
1136.82	498.098
1140.5	55.516
1144.18	156.598
1147.85	141.652
1151.53	460.25
1155.2	419.242
1158.87	19.59
1162.54	1.961
1166.21	9.684
1169.88	254.586
1173.54	306.328
1177.2	514.223
1180.86	521.984
1184.52	389.707
1188.18	185.871
1191.83	80.266
1195.49	61.055
1199.14	0
