Measurement: Raman, 514 nm, ccw, Raman Data Processed
Mineral: Zoisite
Rruff sample: R050038
Ideal chemistry: Ca_2_Al_3_(Si_2_O_7_)(SiO_4_)O(OH)
Locality: Elf Shooting Creek, Clay County, North Carolina, USA
Source: University of Arizona Mineral Museum
Description: Tan colored fragments of single crystals
Measured chemistry: (Ca_.998_Na_.002_)_2_(Al_.982_Fe^3+^_.018_)_3_(Si_.982_Fe^3+^_.018_)_3_O_12_(OH)
Pin_id: L00073
Orientation: Laser parallel to -b* (0 -1 0). Fiducial mark perpendicular to laser is parallel to c [0 0 1]
Raman shift (cm-1)	intensity
105.994	0
110.174	127.006
114.351	1515.74
118.527	3240.27
122.701	2141.53
126.873	1296.48
131.042	1014.42
135.21	1253.38
139.376	2309.68
143.539	3815.25
147.701	5085.49
151.861	2984.9
156.018	1051.93
160.174	308.343
164.327	36.801
168.479	18.653
172.628	13.942
176.776	104.157
180.922	319.843
185.065	896.758
189.207	1994.14
193.346	2084.67
197.484	1293.88
201.619	630.483
205.753	385.97
209.884	368.339
214.014	544.618
218.141	226.614
222.267	20.634
226.391	138.059
230.512	99.158
234.632	72.591
238.749	7.894
242.865	90.991
246.979	318.294
251.09	622.758
255.2	1369.22
259.308	2481.02
263.414	2607.81
267.517	1852.47
271.619	1353.22
275.719	1661.12
279.817	2326.98
283.913	2542.38
288.007	2126.97
292.099	1137.24
296.189	459.679
300.277	497.352
304.363	712.605
308.447	1072.54
312.529	781.829
316.609	430.359
320.687	346.144
324.764	857.151
328.838	2260.57
332.91	4441.98
336.981	4796.11
341.049	3084.78
345.116	1842.37
349.18	878.362
353.243	294.712
357.304	69.108
361.362	133.201
365.419	83.538
369.474	78.175
373.527	7.721
377.578	68.125
381.627	86.812
385.674	41.879
389.719	56.049
393.762	261.874
397.804	325.94
401.843	412.967
405.881	776.607
409.916	1565.79
413.95	3396.81
417.981	6066.73
422.011	5842.81
426.039	3860.06
430.065	3004.51
434.089	2620.17
438.111	1961.71
442.131	1235.02
446.149	766.126
450.166	550.092
454.18	764.298
458.193	525.562
462.203	110.114
466.212	302.365
470.219	935.59
474.224	1996.83
478.227	2751.96
482.228	4419.24
486.227	8525.14
490.224	13101.7
494.22	11009.2
498.213	5327.45
502.205	2664.44
506.194	1601.79
510.182	1159.33
514.168	1113.9
518.152	1436.78
522.134	2062.55
526.114	2956.54
530.093	3038.33
534.069	2822.88
538.044	2419.41
542.017	2042.06
545.987	1636.02
549.956	1260.14
553.923	1197.97
557.889	1572.41
561.852	2459.85
565.813	4494.79
569.773	6827.88
573.731	5801.08
577.686	3182.34
581.64	1489.65
585.593	852.174
589.543	687.199
593.491	1222.06
597.438	1099.85
601.382	289.408
605.325	56.151
609.266	128.409
613.205	3.47
617.142	413.872
621.078	1020.14
625.011	1429.84
628.943	912.708
632.872	405.723
636.8	171.711
640.726	179.874
644.651	335.32
648.573	763.494
652.494	1012.54
656.412	988.384
660.329	928.289
664.244	1151.94
668.157	1533.71
672.069	2706.01
675.978	3911.15
679.886	3791.16
683.792	2442.03
687.696	1323.75
691.598	665.334
695.498	423.786
699.397	178.159
703.293	21.432
707.188	68.56
711.081	44.472
714.972	23.131
718.862	175.532
722.749	409.702
726.635	520.637
730.519	363.333
734.401	208.788
738.281	100.001
742.16	79.95
746.036	16.577
749.911	34.691
753.784	31.275
757.655	23.564
761.525	31.16
765.392	102.925
769.258	155.847
773.122	167.608
776.984	133.816
780.844	111.381
784.703	26.379
788.56	37.971
792.415	75.934
796.268	167.668
800.119	118.504
803.969	188.41
807.816	40.4
811.662	5.731
815.506	71.227
819.349	76.429
823.189	259.389
827.028	504.128
830.865	859.651
834.7	1089.96
838.534	1348.07
842.365	1607.96
846.195	1599.66
850.023	1378.17
853.85	1128.49
857.674	1245.94
861.497	1583.93
865.318	2152.55
869.137	3381.81
872.955	4021.3
876.77	3606.69
880.584	3551.97
884.396	4277.13
888.207	4532.18
892.015	3896.79
895.822	3151.32
899.627	2785.15
903.43	2714.01
907.232	2824.02
911.032	2891.19
914.83	3146.8
918.626	3622.92
922.42	3971.02
926.213	4015.49
930.004	4299.85
933.793	3983.82
937.581	3411.69
941.366	3066.6
945.15	2745.9
948.932	2350.67
952.713	2230.04
956.491	2290.23
960.268	2618.26
964.044	2611.15
967.817	2727.7
971.589	3157.79
975.359	4281.01
979.127	6176.35
982.893	7671.82
986.658	6477.43
990.421	4323.18
994.183	2749.13
997.942	1743.24
1001.7	1335.56
1005.46	832.1
1009.21	662.868
1012.96	561.619
1016.71	495.123
1020.46	397.169
1024.21	392.353
1027.96	374.939
1031.7	443.106
1035.44	681.652
1039.18	1128.55
1042.92	1687.41
1046.66	2260.76
1050.39	2480.2
1054.13	2691.38
1057.86	3739.33
1061.59	6393.89
1065.32	10967.9
1069.05	16723.5
1072.77	17326.3
1076.49	12258.4
1080.22	8583.05
1083.94	7414.47
1087.65	9186.13
1091.37	10468.3
1095.09	8610.83
1098.8	4973.95
1102.51	2888.48
1106.22	1714.56
1109.93	1142.1
1113.63	805.268
1117.34	651.629
1121.04	476.053
1124.74	327.669
1128.44	308.68
1132.14	227.566
1135.84	167.981
1139.53	111.35
1143.22	84.796
1146.91	36.548
1150.61	162.604
1154.29	156.354
1157.98	37.11
1161.66	9.479
1165.35	82.583
1169.03	6.079
1172.71	7.704
1176.38	50.999
1180.06	162.143
1183.73	149.584
1187.41	36.178
1191.08	11.537
1194.75	23.77
1198.41	26.625
1202.08	45.035
1205.74	20.583
1209.41	54.771
1213.07	19.647
1216.73	16.498
1220.38	17.835
1224.04	55.244
1227.69	89.067
1231.35	45.831
1235	107.711
1238.65	136.229
1242.3	72.438
1245.94	3.563
1249.59	40.667
1253.23	45.356
1256.87	26.64
1260.51	89.218
1264.15	137.602
1267.78	145.075
1271.42	141.083
1275.05	159.197
1278.68	63.339
1282.31	42.275
1285.94	26.957
1289.56	71.408
1293.19	9.493
1296.81	98.831
1300.43	99.756
1304.05	37.332
1307.67	33.173
1311.29	1.137
1314.9	1.183
1318.52	14.395
1322.13	128.765
1325.74	148.146
1329.34	178.067
1332.95	195.569
1336.56	177.78
1340.16	181.287
1343.76	96.837
1347.36	72.042
1350.96	112.564
1354.56	12.533
1358.15	177.161
1361.74	149.203
1365.34	284.016
1368.93	193.646
1372.52	141.96
1376.1	146.35
1379.69	26.259
1383.27	107.822
1386.85	150.252
1390.43	72.413
1394.01	215.897
1397.59	138.473
1401.17	90.306
1404.74	255.067
1408.31	122.174
1411.88	122.706
1415.45	184.605
1419.02	79.558
1422.59	61.031
1426.15	43.263
1429.71	115.267
1433.28	141.682
1436.84	76.274
1440.39	36.362
1443.95	195.005
1447.5	195.78
1451.06	123.169
1454.61	117.408
1458.16	95.139
1461.71	114.16
1465.26	49.838
1468.8	50.992
1472.34	180.752
1475.89	65.14
1479.43	249.097
1482.97	177.792
1486.5	227.301
1490.04	153.594
1493.57	86.067
1497.11	92.286
1500.64	18.265
1504.17	34.198
1507.69	7.018
1511.22	30.729
1514.74	165.459
1518.27	151.397
1521.79	0
