Measurement: Raman, 514 nm, ccw, Raman Data Processed
Mineral: Zoisite
Rruff sample: R050041
Ideal chemistry: Ca_2_Al_3_(Si_2_O_7_)(SiO_4_)O(OH)
Locality: Franklin County, Conway, Massachussetts, USA
Source: University of Arizona Mineral Museum
Description: Tan colored fragment
Measured chemistry: (Ca_.993_Mg_.004_Na_.002_Mn_.001_)_2_(Al_.980_Fe^3+^_.020_)_3_(Si_.986_Fe^3+^_.014_)_3_O_12_(OH)
Pin_id: L00320
Orientation: Laser parallel to b* (0 1 0). Fiducial mark perpendicular to laser is parallel to c [0 0 1]
Raman shift (cm-1)	intensity
107.054	0
111.223	398.169
115.391	1161.46
119.556	677.361
123.72	365.871
127.882	125.316
132.041	118.076
136.199	310.488
140.355	1103.26
144.509	1823.37
148.66	1203.65
152.81	554.03
156.958	94.805
161.105	36.777
165.249	109.004
169.391	108.881
173.531	2.064
177.669	118.51
181.806	348.98
185.94	920.014
190.073	941.627
194.204	574.197
198.332	97.85
202.459	232.361
206.584	167.484
210.707	122.912
214.828	1.406
218.947	4.42
223.064	60.541
227.179	24.018
231.293	1.086
235.404	24.209
239.514	150.623
243.621	256.68
247.727	313.078
251.831	559.479
255.933	896.123
260.033	986.205
264.131	630.615
268.227	410.084
272.321	417.656
276.413	672.955
280.504	968.428
284.592	833.67
288.679	508.508
292.764	412.396
296.847	165.625
300.928	238.186
305.007	308.453
309.084	337.516
313.159	256.818
317.233	56.432
321.304	255.994
325.374	844.227
329.442	1711.48
333.508	2247.4
337.572	1491.49
341.634	952.072
345.694	372.918
349.753	234.146
353.809	5.654
357.864	87.436
361.916	269.479
365.967	11.762
370.016	34.285
374.064	7.047
378.109	269.809
382.152	13.004
386.194	29.199
390.233	297.178
394.271	228.705
398.307	270.047
402.341	224.52
406.374	658.947
410.404	1003.9
414.433	2149.1
418.459	2284.61
422.484	1480.49
426.507	1076.63
430.528	943.02
434.547	909.635
438.565	866.453
442.58	595.188
446.594	449.203
450.606	468.586
454.616	485.988
458.624	373.551
462.631	271.287
466.635	89.205
470.638	647.326
474.639	885.656
478.638	1142.89
482.635	2488.87
486.63	4371.42
490.624	4951.15
494.615	2801.59
498.605	1302.65
502.593	564.123
506.579	595.896
510.564	637.873
514.546	500.012
518.527	532.299
522.506	994.727
526.483	1025.79
530.458	1069.4
534.431	842.229
538.403	455.18
542.373	428.225
546.341	561.467
550.307	374.994
554.271	188.59
558.234	452.57
562.195	1076.47
566.154	1990.4
570.111	2404.4
574.066	1418.56
578.019	658.436
581.971	594.848
585.921	239.461
589.869	335.834
593.815	400.332
597.76	10.156
601.703	165.809
605.644	59.688
609.583	124.707
613.52	118.285
617.455	225.248
621.389	90.127
625.321	384.275
629.251	58.969
633.18	119.006
637.106	133.314
641.031	129.104
644.954	140.605
648.875	451.795
652.795	499.805
656.712	300.686
660.628	626.959
664.542	659.076
668.455	822.672
672.365	1665.29
676.274	1987.72
680.181	1240.02
684.086	702.191
687.99	404.227
691.891	186.127
695.791	137.879
699.689	139.488
703.586	170.949
707.48	152.254
711.373	113.4
715.264	114.379
719.154	545.199
723.041	295.854
726.927	126.34
730.811	83.342
734.693	266.518
738.574	256.057
742.453	25.377
746.33	264.461
750.205	26.637
754.079	371.686
757.95	368.568
761.82	167.754
765.689	55.711
769.555	23.502
773.42	51.066
777.283	308.426
781.144	295.604
785.004	202.594
788.862	323.25
792.718	79.998
796.572	45.98
800.425	71.783
804.276	112.93
808.125	36.922
811.972	9.521
815.818	116.277
819.662	246.564
823.504	289.242
827.345	201.758
831.183	294.129
835.02	246.371
838.856	348.533
842.689	800.621
846.521	782.574
850.351	204.4
854.18	306.102
858.006	527.684
861.831	1079.08
865.655	1550.5
869.476	2081.62
873.296	1403.28
877.114	1634.44
880.93	2215.52
884.745	1628.12
888.558	1601.85
892.369	1370.55
896.179	799.039
899.987	629.684
903.793	755.023
907.597	725.602
911.4	1204.5
915.201	1374.73
919.001	1074.23
922.798	1352.89
926.594	1362.23
930.388	1972.29
934.181	1462.33
937.972	991.766
941.761	1283.88
945.548	841.871
949.334	618.359
953.118	739.164
956.901	1008.25
960.681	1133.38
964.46	884.191
968.238	904.879
972.013	1575.62
975.787	1975.5
979.56	3016.56
983.33	2687.51
987.099	1521.74
990.866	860.176
994.632	471.406
998.396	622.77
1002.16	554.719
1005.92	476.324
1009.68	528.094
1013.43	208.969
1017.19	451.227
1020.94	26.422
1024.7	226.836
1028.45	89.133
1032.19	599.461
1035.94	302.121
1039.69	554.75
1043.43	727.367
1047.17	569.352
1050.91	820.594
1054.65	1341.9
1058.39	2353.14
1062.13	3582.83
1065.86	5533.28
1069.59	7004.59
1073.32	5716.01
1077.05	3777.54
1080.78	3029.48
1084.5	3282.41
1088.23	4396.69
1091.95	4081.7
1095.67	2127.14
1099.39	1442.86
1103.11	778.914
1106.82	784.535
1110.54	750.758
1114.25	537.098
1117.96	162.914
1121.67	79.469
1125.38	16.086
1129.08	233.008
1132.79	230.336
1136.49	468.176
1140.19	316.727
1143.89	216.004
1147.59	396.098
1151.28	446.93
1154.98	198.398
1158.67	420.539
1162.36	503.449
1166.05	157.285
1169.74	211.348
1173.43	184.957
1177.11	80.59
1180.79	160.555
1184.47	374.008
1188.15	578.352
1191.83	402.559
1195.51	556.312
1199.18	536.227
1202.86	4.77
1206.53	255.781
1210.2	0
