Measurement: Raman, 514 nm, ccw, Raman Data Processed
Mineral: Zoisite
Rruff sample: R050041
Ideal chemistry: Ca_2_Al_3_(Si_2_O_7_)(SiO_4_)O(OH)
Locality: Franklin County, Conway, Massachussetts, USA
Source: University of Arizona Mineral Museum
Description: Tan colored fragment
Measured chemistry: (Ca_.993_Mg_.004_Na_.002_Mn_.001_)_2_(Al_.980_Fe^3+^_.020_)_3_(Si_.986_Fe^3+^_.014_)_3_O_12_(OH)
Pin_id: L00503
Orientation: Laser parallel to -c* (0 0 -1). Fiducial mark perpendicular to laser is parallel to a [1 0 0]
Raman shift (cm-1)	intensity
107.054	0
109.834	369.768
112.613	429.504
115.391	1280.24
118.168	1113.6
120.944	606.096
123.72	379.297
126.495	262.934
129.268	7.773
132.041	76.215
134.813	151.488
137.584	269.549
140.355	258.547
143.124	456.416
145.893	626.553
148.66	547.545
151.427	429.32
154.193	61.793
156.958	24.871
159.723	38.504
162.486	7.348
165.249	137.291
168.01	112.4
170.771	357.965
173.531	133.971
176.29	80.422
179.049	47.307
181.806	214.617
184.562	152.363
187.318	270.508
190.073	559.037
192.827	137.793
195.58	246.725
198.332	145.807
201.084	205.031
203.834	114.314
206.584	403.76
209.333	583.416
212.081	823.287
214.828	333.385
217.574	393.711
220.32	204.27
223.064	205.068
225.808	196.062
228.551	197.305
231.293	328.793
234.034	240.529
236.774	212.51
239.514	254.881
242.252	137.348
244.99	250.451
247.727	473.43
250.463	516.648
253.198	460.117
255.933	514.656
258.666	718.602
261.399	532.785
264.131	487.205
266.862	371.867
269.592	366.771
272.321	140.65
275.05	423.344
277.777	566.061
280.504	368.65
283.23	461.236
285.955	363.344
288.679	85.861
291.403	208.533
294.125	170.322
296.847	319.451
299.568	323.029
302.288	66.535
305.007	420.502
307.725	414.732
310.443	409.076
313.159	473.635
315.875	168.406
318.59	283.482
321.304	198.773
324.018	134.26
326.73	439.836
329.442	705.711
332.153	671.773
334.863	858.039
337.572	1006.92
340.28	1009.36
342.988	696.18
345.694	393.191
348.4	270.393
351.105	297.768
353.809	25.309
356.512	93.018
359.215	160.891
361.916	228.93
364.617	227.131
367.317	145.498
370.016	15.969
372.715	22.725
375.412	31.58
378.109	230.596
380.805	170.967
383.5	100.297
386.194	49.783
388.887	349.426
391.58	469.246
394.271	599.242
396.962	350.309
399.652	230.613
402.341	58.926
405.03	231.672
407.717	122.412
410.404	383.289
413.09	624.312
415.775	595.477
418.459	596.887
421.143	618.541
423.825	330.408
426.507	292.447
429.188	494.613
431.868	456.908
434.547	479.334
437.226	411.908
439.904	374.631
442.58	399.576
445.256	258.428
447.932	15.305
450.606	188.031
453.28	91.871
455.952	91.043
458.624	614.832
461.295	48.766
463.966	102.836
466.635	12.961
469.304	501.371
471.972	845.84
474.639	570.434
477.305	736.93
479.97	1012.79
482.635	1837.84
485.298	2213.06
487.961	2808.49
490.624	3054.52
493.285	1800.4
495.945	1148.74
498.605	784.953
501.264	391.348
503.922	467.871
506.579	338.555
509.236	115.297
511.891	322.129
514.546	249.086
517.2	396.164
519.853	203.336
522.506	710.613
525.157	307.996
527.808	425.473
530.458	542.93
533.107	300.594
535.756	228.336
538.403	53.84
541.05	203.719
543.696	471.664
546.341	359.684
548.985	260.609
551.629	131.598
554.271	40.184
556.913	368.613
559.554	748.141
562.195	625.773
564.834	934.211
567.473	1222.7
570.111	1751.24
572.748	1280.81
575.384	842.898
578.019	404.723
580.654	237.496
583.288	166.121
585.921	114.91
588.553	253.746
591.185	342.598
593.815	91.473
596.445	560.512
599.074	159.566
601.703	109.73
604.33	70.777
606.957	167.867
609.583	3.352
612.208	355.434
614.832	464.184
617.455	161.152
620.078	609.684
622.7	688.395
625.321	406.992
627.941	315.781
630.561	104.488
633.18	43.184
635.798	230.758
638.415	129.227
641.031	244.723
643.647	353.148
646.261	184.238
648.875	256.387
651.488	18.555
654.101	351
656.712	299.895
659.323	202.695
661.933	37.445
664.542	490.586
667.151	688.57
669.758	1006.5
672.365	1300.15
674.971	1169.4
677.577	1027.18
680.181	1017.13
682.785	847.363
685.388	176.375
687.99	375.25
690.591	642.738
693.192	670.168
695.791	446.578
698.39	373.992
700.988	491.223
703.586	268.387
706.182	34.43
708.778	242.582
711.373	68.613
713.968	75.469
716.561	542.227
719.154	509.016
721.746	365.723
724.337	402.355
726.927	68.91
729.517	555.363
732.105	341.621
734.693	537.586
737.281	86.668
739.867	278.793
742.453	154.168
745.038	369.453
747.622	234.656
750.205	199.773
752.788	142.316
755.369	99.73
757.95	85.391
760.531	218.316
763.11	552.949
765.689	317.141
768.267	331.598
770.844	670.43
773.42	324.734
775.996	208.953
778.57	503.082
781.144	497.121
783.718	371.066
786.29	464.926
788.862	398.691
791.433	200.508
794.003	13
796.572	226.242
799.141	270.637
801.709	232.02
804.276	404.078
806.842	83.957
809.407	104.039
811.972	2.309
814.536	289.262
817.099	536.68
819.662	508.043
822.223	209.324
824.784	29.473
827.345	61.566
829.904	712.504
832.462	33.367
835.02	24.129
837.577	304.781
840.134	185.32
842.689	705.762
845.244	446.113
847.798	146.383
850.351	176.578
852.904	1156.7
855.455	966.738
858.006	747.496
860.556	801.777
863.106	1211.57
865.655	1720.75
868.202	1490.04
870.75	1510.8
873.296	1250.3
875.842	959.73
878.386	1019.08
880.93	1367.46
883.474	856.668
886.016	1212.36
888.558	802.531
891.099	727.617
893.639	426.555
896.179	865.422
898.718	994.25
901.256	1013.03
903.793	601.781
906.329	1140.21
908.865	1558.13
911.4	1435.64
913.934	1594.33
916.468	1493
919.001	1281.65
921.532	2200.28
924.064	2578.84
926.594	2447.25
929.124	2015.65
931.653	1703.75
934.181	1721.83
936.708	909.805
939.235	1147.78
941.761	1555.67
944.286	784.66
946.811	869.195
949.334	583.516
951.857	600.234
954.379	1146.68
956.901	920.82
959.421	361.016
961.941	558.039
964.46	881.773
966.979	669.484
969.496	695.926
972.013	914.195
974.529	552.59
977.045	1346.88
979.56	1784.23
982.073	1433.26
984.587	860
987.099	1118.06
989.611	833.965
992.122	320.824
994.632	348.68
997.141	266.582
999.65	594.438
1002.16	502.219
1004.66	309.945
1007.17	197.387
1009.68	584.742
1012.18	282.105
1014.69	179.766
1017.19	697.688
1019.69	685.582
1022.2	513.426
1024.7	301.246
1027.2	299.059
1029.7	496.824
1032.19	854.551
1034.69	472.227
1037.19	90.129
1039.69	487.496
1042.18	1185.27
1044.68	533.27
1047.17	62.008
1049.67	631.258
1052.16	1371.03
1054.65	831.008
1057.14	631.078
1059.64	891.367
1062.13	1631.77
1064.62	1732.4
1067.1	2053.27
1069.59	2014.34
1072.08	2365.66
1074.57	1471.48
1077.05	1222.32
1079.54	872.484
1082.02	1272.43
1084.5	1322.34
1086.99	1262.64
1089.47	1379.98
1091.95	1830.02
1094.43	1890.14
1096.91	1140.22
1099.39	1000.2
1101.87	300.027
1104.35	379.566
1106.82	280.293
1109.3	2.824
1111.78	467.195
1114.25	493.352
1116.72	391.117
1119.2	300.66
1121.67	152.863
1124.14	548.508
1126.61	618.359
1129.08	203.672
1131.55	417.035
1134.02	0.719
1136.49	0
