Measurement: Raman, 514 nm, ccw, Raman Data Processed
Mineral: Zoisite
Rruff sample: R050038
Ideal chemistry: Ca_2_Al_3_(Si_2_O_7_)(SiO_4_)O(OH)
Locality: Elf Shooting Creek, Clay County, North Carolina, USA
Source: University of Arizona Mineral Museum
Description: Tan colored fragments of single crystals
Measured chemistry: (Ca_.998_Na_.002_)_2_(Al_.982_Fe^3+^_.018_)_3_(Si_.982_Fe^3+^_.018_)_3_O_12_(OH)
Pin_id: L00064
Orientation: Laser parallel to a* (1 0 0). Fiducial mark perpendicular to laser is parallel to b [0 1 0]
Raman shift (cm-1)	intensity
108.781	0
112.959	1010.17
117.136	2323.18
121.31	1513.5
125.482	339.063
129.653	34.607
133.821	53.763
137.987	65.201
142.152	389.251
146.314	924.772
150.474	858.494
154.633	403.45
158.789	15.068
162.943	17.267
167.095	234.797
171.246	194.098
175.394	450.511
179.54	469.465
183.684	764.049
187.826	1167.51
191.967	1534.26
196.105	1241.99
200.241	575.162
204.375	263.652
208.507	135.301
212.638	75.443
216.766	109.463
220.892	86.259
225.016	15.156
229.139	98.671
233.259	8.067
237.377	63.105
241.493	82.359
245.608	243.391
249.72	547.794
253.83	1089.38
257.939	2170.1
262.045	2105.57
266.15	835.759
270.252	5.142
274.353	52.127
278.451	58.264
282.548	274.38
286.642	187.339
290.735	134.331
294.826	208.978
298.914	217.995
303.001	448.419
307.086	1436.47
311.168	2353.14
315.249	1861.02
319.328	1005.78
323.405	878.128
327.48	1039.01
331.553	1568.61
335.624	2618.16
339.693	4446.97
343.76	7884.06
347.826	7252.87
351.889	3613.69
355.95	1590.35
360.01	805.074
364.067	365.347
368.123	300.519
372.176	23.71
376.228	71.292
380.277	124.047
384.325	142.566
388.371	43.876
392.415	95.015
396.457	163.23
400.497	110.966
404.535	92.891
408.571	366.763
412.605	578.132
416.638	1006.24
420.668	1388.06
424.697	1189.51
428.723	1060.42
432.748	986.492
436.77	923.795
440.791	685.564
444.81	538.024
448.827	417.791
452.842	401.937
456.855	617.145
460.867	425.627
464.876	818.84
468.883	1870.38
472.889	3933.84
476.892	3968.71
480.894	4473.02
484.894	7386.43
488.892	12659.8
492.888	12603.1
496.882	7316.32
500.874	3679.54
504.865	2012.77
508.853	1350.87
512.84	1141.73
516.824	1062.3
520.807	1476.51
524.788	2212.02
528.767	2127.11
532.744	1352.05
536.719	943.938
540.693	716.513
544.664	662.972
548.634	854.166
552.601	1013.94
556.567	1503.17
560.531	2489.26
564.493	4485.29
568.453	7516.3
572.412	7244.69
576.368	4353.69
580.323	2109.43
584.275	1318.7
588.226	1115.93
592.175	1668.54
596.122	2220.74
600.068	1332.79
604.011	633.896
607.952	360.929
611.892	425.593
615.83	696.847
619.766	1742.12
623.7	2584.48
627.632	2096.83
631.563	969.127
635.491	531.392
639.418	249.626
643.343	244.002
647.266	350.444
651.187	603.07
655.106	867.932
659.024	805.89
662.939	991.168
666.853	1543.25
670.765	2909.71
674.675	5051.79
678.583	5313.66
682.49	3495.5
686.394	1917.38
690.297	1299.3
694.198	849.381
698.097	600.713
701.995	398.441
705.89	179.466
709.784	161.64
713.675	104.857
717.565	25.917
721.453	70.307
725.34	52.459
729.224	84.439
733.107	102.866
736.988	16.578
740.867	67.543
744.744	10.21
748.62	10.877
752.493	116.478
756.365	254.031
760.235	400.519
764.103	644.999
767.969	936.422
771.834	1147.8
775.697	1309.12
779.558	1110.39
783.417	931.615
787.274	512.785
791.13	244.907
794.983	241.98
798.835	95.994
802.686	15.104
806.534	143.552
810.38	162.674
814.225	150.489
818.068	31.913
821.909	19.35
825.749	32.408
829.586	172.384
833.422	317.337
837.256	235.267
841.088	403.162
844.919	581.045
848.748	706.202
852.575	936.888
856.4	1334.87
860.223	2032.87
864.045	3410.84
867.864	5798.52
871.682	8033.32
875.499	6248.3
879.313	3993
883.126	3133.65
886.937	3078.42
890.746	3127.5
894.553	3275.13
898.359	3541.66
902.163	3818.77
905.965	4396.91
909.765	5385.06
913.564	7553.23
917.361	11501.4
921.156	17029.7
924.949	22837.9
928.74	21236.2
932.53	13674.5
936.318	7892.89
940.104	4651.26
943.889	2999.69
947.672	2448.17
951.453	1965.52
955.232	1789.73
959.01	1614.04
962.785	1387.76
966.559	1552.38
970.332	1650.22
974.102	2193.7
977.871	3228.36
981.638	4337.4
985.404	4218.14
989.167	2727.43
992.929	1726.85
996.689	1060.18
1000.45	754.126
1004.2	591.85
1007.96	415.006
1011.71	255.392
1015.46	22.987
1019.21	74.067
1022.96	325.514
1026.71	296.77
1030.45	307.937
1034.19	289.999
1037.94	301.714
1041.68	573.007
1045.41	725.435
1049.15	771.326
1052.88	633.689
1056.62	396.223
1060.35	468.389
1064.08	711.425
1067.8	1044.42
1071.53	1159.41
1075.25	972.23
1078.97	934.9
1082.7	1137.83
1086.41	1860.33
1090.13	2493.4
1093.85	2609.65
1097.56	1693.06
1101.27	1265.82
1104.98	908.674
1108.69	572.195
1112.4	355.363
1116.1	389.25
1119.81	63.288
1123.51	98.04
1127.21	82.547
1130.91	51.001
1134.61	36.352
1138.3	21.142
1141.99	92.735
1145.68	2.264
1149.38	56.164
1153.06	8.582
1156.75	83.239
1160.43	22.621
1164.12	156.196
1167.8	101.978
1171.48	81.896
1175.16	49.354
1178.83	32.05
1182.51	115.323
1186.18	237.95
1189.85	50.17
1193.52	25.129
1197.19	76.517
1200.86	17.676
1204.52	138.795
1208.19	71.441
1211.85	71.706
1215.51	361.653
1219.17	241.598
1222.82	221.442
1226.48	473.109
1230.13	143.581
1233.78	44.547
1237.43	26.435
1241.08	91.919
1244.73	250.36
1248.37	408.65
1252.01	326.779
1255.66	305.4
1259.3	222.854
1262.93	130.659
1266.57	47.562
1270.21	84.57
1273.84	81.262
1277.47	186.1
1281.1	202.038
1284.73	127.604
1288.36	81.967
1291.98	72.334
1295.6	89.78
1299.23	142.377
1302.85	102.515
1306.46	11.064
1310.08	25.164
1313.7	16.617
1317.31	32.756
1320.92	97.707
1324.53	38.127
1328.14	77.872
1331.75	77.542
1335.35	22.327
1338.96	116.639
1342.56	141.969
1346.16	380.149
1349.76	368.631
1353.36	426.567
1356.95	183.672
1360.55	174.42
1364.14	109.162
1367.73	6.002
1371.32	123.24
1374.91	18.579
1378.49	142.878
1382.08	318.644
1385.66	269.413
1389.24	279.9
1392.82	370.491
1396.4	199.644
1399.97	275.994
1403.55	90.079
1407.12	177.639
1410.69	70.815
1414.26	178.846
1417.83	183.008
1421.4	260.922
1424.96	303.056
1428.53	285.347
1432.09	153.596
1435.65	136.398
1439.21	256.355
1442.76	139.59
1446.32	47.759
1449.87	93.559
1453.43	194.796
1456.98	334.859
1460.53	312.112
1464.07	229.697
1467.62	447.196
1471.16	332.953
1474.71	248.795
1478.25	118.688
1481.79	187.869
1485.32	126.492
1488.86	95.065
1492.39	105.144
1495.93	195.681
1499.46	382.996
1502.99	415.175
1506.52	308.621
1510.05	193.725
1513.57	207.595
1517.09	67.316
1520.62	0
