Measurement: Raman, 514 nm, ccw, Raman Data Processed
Mineral: Zoisite
Rruff sample: R050038
Ideal chemistry: Ca_2_Al_3_(Si_2_O_7_)(SiO_4_)O(OH)
Locality: Elf Shooting Creek, Clay County, North Carolina, USA
Source: University of Arizona Mineral Museum
Description: Tan colored fragments of single crystals
Measured chemistry: (Ca_.998_Na_.002_)_2_(Al_.982_Fe^3+^_.018_)_3_(Si_.982_Fe^3+^_.018_)_3_O_12_(OH)
Pin_id: M00498
Orientation: Laser parallel to c* (0 0 1). Fiducial mark perpendicular to laser is parallel to a [1 0 0]
Raman shift (cm-1)	intensity
103.843	0
108.033	546.472
112.22	2952.72
116.406	2814.2
120.589	1724.15
124.77	997.841
128.949	971.991
133.126	923.534
137.301	1194.48
141.473	1458.06
145.644	1550.28
149.812	985.31
153.979	435.435
158.143	51.828
162.305	29.212
166.465	55.96
170.623	399.476
174.778	463.692
178.932	379.312
183.083	534.611
187.233	754.356
191.38	576.417
195.525	373.613
199.669	215.312
203.81	247.771
207.949	553.367
212.085	763.614
216.22	465.019
220.353	73.209
224.483	207.923
228.612	121.816
232.738	186.315
236.863	149.706
240.985	21.067
245.105	111.158
249.223	272.464
253.339	600.908
257.453	1137
261.565	1018.33
265.675	678.751
269.783	618.004
273.888	859.462
277.992	828.033
282.093	773.122
286.193	383.227
290.29	236.891
294.386	171.552
298.479	397.818
302.57	501.753
306.659	883.292
310.746	921.865
314.831	583.399
318.914	405.715
322.995	505.905
327.074	842.107
331.151	1500.49
335.226	1792.14
339.299	1970.98
343.37	2172.09
347.438	1511.33
351.505	787.565
355.57	426.676
359.632	288.952
363.693	248.72
367.751	181.952
371.808	57.574
375.862	17.832
379.914	2.784
383.965	199.175
388.013	542.969
392.06	843.907
396.104	554.159
400.146	100.667
404.186	77.396
408.225	332.53
412.261	768.793
416.295	1371.8
420.327	1416.23
424.357	1035.38
428.386	926.483
432.412	832.426
436.436	784.022
440.458	495.719
444.478	264.168
448.496	295.205
452.513	341.043
456.527	249.111
460.539	150.98
464.549	393.76
468.557	770.827
472.563	1434.18
476.567	2033.78
480.57	3073.67
484.57	4898.83
488.568	6765.28
492.564	5174.14
496.558	2679.05
500.551	1329.99
504.541	838.911
508.529	571.735
512.515	496.152
516.5	611.841
520.482	1013.41
524.462	1273.38
528.441	1440.31
532.417	1313.35
536.391	1058.9
540.364	706.496
544.334	731.63
548.303	737.19
552.269	773.497
556.234	931.996
560.197	1362.28
564.157	2259.54
568.116	3332.64
572.073	2712.33
576.027	1563.98
579.98	774.38
583.931	442.43
587.88	456.844
591.827	749.04
595.772	775.893
599.715	236.231
603.656	26.047
607.595	83.415
611.532	156.412
615.468	657.201
619.401	953.266
623.332	951.73
627.262	662.796
631.189	257.816
635.115	85.313
639.039	6.521
642.96	99.52
646.88	213.592
650.798	384.859
654.714	391.962
658.628	515.342
662.54	501.082
666.45	779.895
670.358	1167.29
674.264	2011.1
678.169	1877.85
682.071	1156.55
685.972	711.194
689.87	493.806
693.767	168.403
697.662	124.001
701.555	9.441
705.446	3.024
709.335	5.852
713.222	31.038
717.107	51.597
720.99	66.541
724.872	32.468
728.751	43.18
732.629	17.667
736.504	60.094
740.378	73.282
744.25	85.329
748.12	13.401
751.988	6.18
755.854	135.767
759.719	162.866
763.581	109.711
767.442	186.012
771.3	259.206
775.157	246.238
779.012	220.104
782.865	141.788
786.716	107.29
790.565	15.187
794.413	19.688
798.258	48.4
802.102	89.519
805.943	44.743
809.783	63.496
813.621	30.241
817.457	79.649
821.292	73.836
825.124	186.851
828.954	368.674
832.783	470.35
836.61	459.873
840.435	634.25
844.258	738.476
848.079	786.578
851.898	1068.35
855.715	1525.47
859.531	1954
863.345	2087.82
867.157	2675.8
870.967	3255.26
874.775	2457.27
878.581	1889.91
882.386	1874.5
886.188	2106.09
889.989	2093.24
893.788	2043.72
897.585	2085.41
901.38	2346.91
905.174	2755.75
908.965	3087.04
912.755	3450.86
916.543	4136.81
920.329	5342.29
924.113	6647.74
927.895	5773.14
931.676	3958.5
935.454	2729.76
939.231	2134.85
943.006	1812.77
946.78	1645.82
950.551	1279.08
954.32	1260.36
958.088	1089.74
961.854	1170.2
965.618	1043.45
969.38	1155.54
973.141	1626.02
976.9	2356.38
980.656	3017.89
984.411	2886.96
988.165	1907.28
991.916	1125.01
995.665	760.094
999.413	512.73
1003.16	432.334
1006.9	277.406
1010.65	226.343
1014.39	193.786
1018.12	214.188
1021.86	175.872
1025.6	147.609
1029.33	135.156
1033.06	842.681
1036.79	291.955
1040.52	581.756
1044.25	685.414
1047.97	744.673
1051.69	804.875
1055.41	1020.51
1059.13	1504.97
1062.85	2631.46
1066.57	3778.76
1070.28	4277.27
1073.99	3305.98
1077.7	2431.38
1081.41	2240.82
1085.12	2650.62
1088.82	3460.16
1092.52	3119.09
1096.22	1830.06
1099.92	1251.01
1103.62	743.419
1107.32	519.721
1111.01	368.244
1114.7	247.363
1118.39	219.316
1122.08	119.731
1125.77	81.877
1129.45	114.093
1133.14	118.833
1136.82	116.036
1140.5	75.044
1144.18	46.141
1147.85	27.094
1151.53	16.238
1155.2	11.311
1158.87	31.729
1162.54	45.503
1166.21	52.354
1169.88	52.562
1173.54	10.464
1177.2	16.091
1180.86	3.699
1184.52	23.805
1188.18	46.738
1191.83	25.477
1195.49	17.021
1199.14	132.509
1202.79	10.602
1206.44	52.75
1210.08	72.44
1213.73	88.092
1217.37	68.912
1221.01	107.31
1224.65	84.141
1228.29	51.861
1231.93	94.784
1235.56	60.794
1239.19	38.622
1242.83	10.455
1246.46	75.868
1250.08	65.124
1253.71	88.231
1257.33	79.268
1260.96	84.441
1264.58	114.933
1268.19	47.783
1271.81	68.961
1275.43	125.81
1279.04	119.915
1282.65	20.355
1286.27	8.672
1289.87	29.409
1293.48	83.931
1297.09	69.37
1300.69	38.827
1304.29	43.096
1307.89	25.942
1311.49	35.186
1315.09	128.026
1318.68	80.12
1322.28	56.491
1325.87	97.855
1329.46	37.008
1333.05	42.419
1336.63	107.816
1340.22	45.032
1343.8	49.457
1347.38	38.596
1350.96	123.252
1354.54	138.704
1358.12	194.233
1361.69	89.447
1365.26	64.736
1368.83	15.201
1372.4	1.368
1375.97	78.342
1379.54	137.789
1383.1	149.699
1386.66	208.202
1390.23	114.005
1393.79	167.061
1397.34	83.943
1400.9	33.962
1404.45	87.343
1408.01	19.622
1411.56	67.973
1415.11	103.95
1418.66	235.984
1422.2	104.299
1425.75	131.835
1429.29	167.557
1432.83	145.518
1436.37	62.632
1439.91	77.867
1443.44	79.429
1446.98	63.738
1450.51	116.036
1454.04	104.923
1457.57	144.921
1461.1	259.253
1464.63	299.703
1468.15	189.506
1471.67	113.976
1475.19	89.054
1478.71	86.023
1482.23	75.593
1485.75	100.596
1489.26	70.094
1492.78	181.909
1496.29	139.322
1499.8	166.386
1503.31	298.791
1506.81	204.748
1510.32	243.085
1513.82	256.489
1517.32	0
